1

   Abaqus 3DEXPERIENCE R2018x                                  Date 28-Jan-2022   Time 11:31:15
   For use by UNIVERSITY COLLEGE LONDON under license from Dassault Systemes or its subsidiary.

                                                                                 
                                                                                 
 STEP    1     INCREMENT     1     STEP TIME    0.00    


                        S T E P       1     S T A T I C   A N A L Y S I S


                                                                                          

     AUTOMATIC TIME CONTROL WITH -
          A SUGGESTED INITIAL TIME INCREMENT OF                1.000E-02
          AND A TOTAL TIME PERIOD OF                            1.00    
          THE MINIMUM TIME INCREMENT ALLOWED IS                1.000E-02
          THE MAXIMUM TIME INCREMENT ALLOWED IS                1.000E-02

     LINEAR EQUATION SOLVER TYPE         DIRECT SPARSE

 CONVERGENCE TOLERANCE PARAMETERS FOR FORCE    
     CRITERION FOR RESIDUAL FORCE     FOR A NONLINEAR PROBLEM          5.000E-03
     CRITERION FOR DISP.    CORRECTION IN A NONLINEAR PROBLEM          1.000E-02
     INITIAL VALUE OF TIME AVERAGE FORCE                               1.000E-02
     AVERAGE FORCE     IS TIME AVERAGE FORCE    
     ALTERNATE CRIT. FOR RESIDUAL FORCE     FOR A NONLINEAR PROBLEM    2.000E-02
     CRITERION FOR ZERO FORCE     RELATIVE TO TIME AVRG. FORCE         1.000E-05
     CRITERION FOR RESIDUAL FORCE     WHEN THERE IS ZERO FLUX          1.000E-05
     CRITERION FOR DISP.    CORRECTION WHEN THERE IS ZERO FLUX         1.000E-03
     CRITERION FOR RESIDUAL FORCE     FOR A LINEAR INCREMENT           1.000E-08
     FIELD CONVERSION RATIO                                             1.00    
     CRITERION FOR ZERO FORCE     REL. TO TIME AVRG. MAX. FORCE        1.000E-05
     CRITERION FOR ZERO DISP.    RELATIVE TO CHARACTERISTIC LENGTH     1.000E-08

 CONVERGENCE TOLERANCE PARAMETERS FOR MOMENT   
     CRITERION FOR RESIDUAL MOMENT    FOR A NONLINEAR PROBLEM          5.000E-03
     CRITERION FOR ROTATION CORRECTION IN A NONLINEAR PROBLEM          1.000E-02
     INITIAL VALUE OF TIME AVERAGE MOMENT                              1.000E-02
     AVERAGE MOMENT    IS TIME AVERAGE MOMENT   
     ALTERNATE CRIT. FOR RESIDUAL MOMENT    FOR A NONLINEAR PROBLEM    2.000E-02
     CRITERION FOR ZERO MOMENT    RELATIVE TO TIME AVRG. MOMENT        1.000E-05
     CRITERION FOR RESIDUAL MOMENT    WHEN THERE IS ZERO FLUX          1.000E-05
     CRITERION FOR ROTATION CORRECTION WHEN THERE IS ZERO FLUX         1.000E-03
     CRITERION FOR RESIDUAL MOMENT    FOR A LINEAR INCREMENT           1.000E-08
     FIELD CONVERSION RATIO                                             1.00    
     CRITERION FOR ZERO MOMENT    REL. TO TIME AVRG. MAX. MOMENT       1.000E-05

     VOLUMETRIC STRAIN COMPATIBILITY TOLERANCE FOR HYBRID SOLIDS       1.000E-05
     AXIAL STRAIN COMPATIBILITY TOLERANCE FOR HYBRID BEAMS             1.000E-05
     TRANS. SHEAR STRAIN COMPATIBILITY TOLERANCE FOR HYBRID BEAMS      1.000E-05
     SOFT CONTACT CONSTRAINT COMPATIBILITY TOLERANCE FOR P>P0          5.000E-03
     SOFT CONTACT CONSTRAINT COMPATIBILITY TOLERANCE FOR P=0.0         0.100    
     CONTACT FORCE ERROR TOLERANCE FOR CONVERT SDI=YES                 1.00    
     DISPLACEMENT COMPATIBILITY TOLERANCE FOR DCOUP ELEMENTS           1.000E-05
     ROTATION COMPATIBILITY TOLERANCE FOR DCOUP ELEMENTS               1.000E-05

 EQUILIBRIUM WILL BE CHECKED FOR SEVERE DISCONTINUITY ITERATIONS

 TIME INCREMENTATION CONTROL PARAMETERS:
     FIRST EQUILIBRIUM ITERATION FOR CONSECUTIVE DIVERGENCE CHECK              4
     EQUILIBRIUM ITERATION AT WHICH LOG. CONVERGENCE RATE CHECK BEGINS         8
     EQUILIBRIUM ITERATION AFTER WHICH ALTERNATE RESIDUAL IS USED              9
     MAXIMUM EQUILIBRIUM ITERATIONS ALLOWED                                   16
     EQUILIBRIUM ITERATION COUNT FOR CUT-BACK IN NEXT INCREMENT               10
     MAXIMUM EQUILIB. ITERS IN TWO INCREMENTS FOR TIME INCREMENT INCREASE      4
     MAXIMUM ITERATIONS FOR SEVERE DISCONTINUITIES                            50
     MAXIMUM ATTEMPTS ALLOWED IN AN INCREMENT                                  5
     MAXIMUM DISCON. ITERS IN TWO INCREMENTS FOR TIME INCREMENT INCREASE      50
     MAXIMUM CONTACT AUGMENTATIONS FOR *SURFACE BEHAVIOR,AUGMENTED LAGRANGE   50
     CUT-BACK FACTOR AFTER DIVERGENCE                                 0.2500    
     CUT-BACK FACTOR FOR TOO SLOW CONVERGENCE                         0.5000    
     CUT-BACK FACTOR AFTER TOO MANY EQUILIBRIUM ITERATIONS            0.7500    
     CUT-BACK FACTOR AFTER TOO MANY SEVERE DISCONTINUITY ITERATIONS   0.2500    
     CUT-BACK FACTOR AFTER PROBLEMS IN ELEMENT ASSEMBLY               0.2500    
     INCREASE FACTOR AFTER TWO INCREMENTS THAT CONVERGE QUICKLY        1.500    
     MAX. TIME INCREMENT INCREASE FACTOR ALLOWED                       1.500    
     MAX. TIME INCREMENT INCREASE FACTOR ALLOWED (DYNAMICS)            1.250    
     MAX. TIME INCREMENT INCREASE FACTOR ALLOWED (DIFFUSION)           2.000    
     MINIMUM TIME INCREMENT RATIO FOR EXTRAPOLATION TO OCCUR          0.1000    
     MAX. RATIO OF TIME INCREMENT TO STABILITY LIMIT                   1.000    
     FRACTION OF STABILITY LIMIT FOR NEW TIME INCREMENT               0.9500    
     TIME INCREMENT INCREASE FACTOR BEFORE A TIME POINT                1.000    
     GLOBAL STABILIZATION CONTROL IS NOT USED

          PRINT OF INCREMENT NUMBER, TIME, ETC., EVERY    1  INCREMENTS

     THE MAXIMUM NUMBER OF INCREMENTS IN THIS STEP IS                    1000

     LINEAR EXTRAPOLATION WILL BE USED

     CHARACTERISTIC ELEMENT LENGTH     1.000E-02

     DETAILS REGARDING ACTUAL SOLUTION WAVEFRONT REQUESTED

     DETAILED OUTPUT OF DIAGNOSTICS TO DATABASE REQUESTED

     PRINT OF INCREMENT NUMBER, TIME, ETC., TO THE MESSAGE FILE EVERY     1  INCREMENTS

     COLLECTING MODEL CONSTRAINT INFORMATION FOR OVERCONSTRAINT CHECKS

     COLLECTING STEP CONSTRAINT INFORMATION FOR OVERCONSTRAINT CHECKS


  INCREMENT     1 STARTS. ATTEMPT NUMBER  1, TIME INCREMENT  1.000E-02

  NUMBER OF EQUATIONS =      2693     NUMBER OF RHS =    1
  NUMBER OF FLOATING PT. OPERATIONS =  1.90E+05

     CHECK POINT   START OF SOLVER    

     CHECK POINT  END OF SOLVER       

       ELAPSED USER TIME (SEC)      =   0.0000    
       ELAPSED SYSTEM TIME (SEC)    =   0.0000    
       ELAPSED TOTAL CPU TIME (SEC) =   0.0000    
       ELAPSED WALLCLOCK TIME (SEC) =          0
 

 ***WARNING: SOLVER PROBLEM. NUMERICAL SINGULARITY WHEN PROCESSING NODE INST.15 
             D.O.F. 1 RATIO = 33.5296E+12 .
 

 ***WARNING: SOLVER PROBLEM. NUMERICAL SINGULARITY WHEN PROCESSING NODE INST.15 
             D.O.F. 2 RATIO = 146.439E+12  .

               CONVERGENCE CHECKS FOR EQUILIBRIUM ITERATION     1


 AVERAGE FORCE                      8.067E-03   TIME AVG. FORCE       8.067E-03
 LARGEST RESIDUAL FORCE            -1.397E-13   AT NODE         61   DOF  2
   INSTANCE: INST                                                                            
 LARGEST INCREMENT OF DISP.        -9.000E-04   AT NODE          1   DOF  2
   INSTANCE: {assembly node}                                                                 
 LARGEST CORRECTION TO DISP.       -9.000E-04   AT NODE          1   DOF  2
   INSTANCE: {assembly node}                                                                 
          THE FORCE     EQUILIBRIUM RESPONSE WAS LINEAR IN THIS INCREMENT

 AVERAGE MOMENT                     1.747E-03   TIME AVG. MOMENT      1.747E-03
 LARGEST RESIDUAL MOMENT           -4.658E-16   AT NODE        548   DOF  6
   INSTANCE: INST                                                                            
 LARGEST INCREMENT OF ROTATION     -1.023E-03   AT NODE        466   DOF  6
   INSTANCE: INST                                                                            
 LARGEST CORRECTION TO ROTATION    -1.023E-03   AT NODE        466   DOF  6
   INSTANCE: INST                                                                            
          THE MOMENT    EQUILIBRIUM RESPONSE WAS LINEAR IN THIS INCREMENT

 ITERATION SUMMARY FOR THE INCREMENT:   1 TOTAL ITERATIONS, OF WHICH
   0 ARE SEVERE DISCONTINUITY ITERATIONS AND  1 ARE EQUILIBRIUM ITERATIONS.

 TIME INCREMENT COMPLETED  1.000E-02,  FRACTION OF STEP COMPLETED  1.000E-02
 STEP TIME COMPLETED       1.000E-02,  TOTAL TIME COMPLETED        1.000E-02


  INCREMENT     2 STARTS. ATTEMPT NUMBER  1, TIME INCREMENT  1.000E-02

  NUMBER OF EQUATIONS =      2693     NUMBER OF RHS =    1
  NUMBER OF FLOATING PT. OPERATIONS =  1.90E+05

     CHECK POINT   START OF SOLVER    

     CHECK POINT  END OF SOLVER       

       ELAPSED USER TIME (SEC)      =   0.0000    
       ELAPSED SYSTEM TIME (SEC)    =   0.0000    
       ELAPSED TOTAL CPU TIME (SEC) =   0.0000    
       ELAPSED WALLCLOCK TIME (SEC) =          0

               CONVERGENCE CHECKS FOR EQUILIBRIUM ITERATION     1


 AVERAGE FORCE                      3.227E-02   TIME AVG. FORCE       2.017E-02
 LARGEST RESIDUAL FORCE            -8.372E-14   AT NODE        213   DOF  1
   INSTANCE: INST                                                                            
 LARGEST INCREMENT OF DISP.        -9.000E-04   AT NODE          1   DOF  2
   INSTANCE: {assembly node}                                                                 
 LARGEST CORRECTION TO DISP.       -7.464E-15   AT NODE        134   DOF  2
   INSTANCE: INST                                                                            
          THE FORCE     EQUILIBRIUM RESPONSE WAS LINEAR IN THIS INCREMENT

 AVERAGE MOMENT                     5.293E-03   TIME AVG. MOMENT      3.520E-03
 LARGEST RESIDUAL MOMENT            4.372E-16   AT NODE        128   DOF  6
   INSTANCE: INST                                                                            
 LARGEST INCREMENT OF ROTATION      1.023E-03   AT NODE        594   DOF  6
   INSTANCE: INST                                                                            
 LARGEST CORRECTION TO ROTATION     1.588E-14   AT NODE        473   DOF  6
   INSTANCE: INST                                                                            
          THE MOMENT    EQUILIBRIUM RESPONSE WAS LINEAR IN THIS INCREMENT

 ITERATION SUMMARY FOR THE INCREMENT:   1 TOTAL ITERATIONS, OF WHICH
   0 ARE SEVERE DISCONTINUITY ITERATIONS AND  1 ARE EQUILIBRIUM ITERATIONS.

 TIME INCREMENT COMPLETED  1.000E-02,  FRACTION OF STEP COMPLETED  2.000E-02
 STEP TIME COMPLETED       2.000E-02,  TOTAL TIME COMPLETED        2.000E-02


  INCREMENT     3 STARTS. ATTEMPT NUMBER  1, TIME INCREMENT  1.000E-02

  NUMBER OF EQUATIONS =      2693     NUMBER OF RHS =    1
  NUMBER OF FLOATING PT. OPERATIONS =  1.90E+05

     CHECK POINT   START OF SOLVER    

     CHECK POINT  END OF SOLVER       

       ELAPSED USER TIME (SEC)      =   0.0000    
       ELAPSED SYSTEM TIME (SEC)    =   0.0000    
       ELAPSED TOTAL CPU TIME (SEC) =   0.0000    
       ELAPSED WALLCLOCK TIME (SEC) =          0

               CONVERGENCE CHECKS FOR EQUILIBRIUM ITERATION     1


 AVERAGE FORCE                      4.840E-02   TIME AVG. FORCE       2.958E-02
 LARGEST RESIDUAL FORCE             1.097E-13   AT NODE        118   DOF  2
   INSTANCE: INST                                                                            
 LARGEST INCREMENT OF DISP.        -9.000E-04   AT NODE          1   DOF  2
   INSTANCE: {assembly node}                                                                 
 LARGEST CORRECTION TO DISP.        3.733E-15   AT NODE        134   DOF  2
   INSTANCE: INST                                                                            
          THE FORCE     EQUILIBRIUM RESPONSE WAS LINEAR IN THIS INCREMENT

 AVERAGE MOMENT                     7.939E-03   TIME AVG. MOMENT      4.993E-03
 LARGEST RESIDUAL MOMENT           -4.129E-16   AT NODE        392   DOF  6
   INSTANCE: INST                                                                            
 LARGEST INCREMENT OF ROTATION     -1.023E-03   AT NODE        466   DOF  6
   INSTANCE: INST                                                                            
 LARGEST CORRECTION TO ROTATION    -7.945E-15   AT NODE        473   DOF  6
   INSTANCE: INST                                                                            
          THE MOMENT    EQUILIBRIUM RESPONSE WAS LINEAR IN THIS INCREMENT

 ITERATION SUMMARY FOR THE INCREMENT:   1 TOTAL ITERATIONS, OF WHICH
   0 ARE SEVERE DISCONTINUITY ITERATIONS AND  1 ARE EQUILIBRIUM ITERATIONS.

 TIME INCREMENT COMPLETED  1.000E-02,  FRACTION OF STEP COMPLETED  3.000E-02
 STEP TIME COMPLETED       3.000E-02,  TOTAL TIME COMPLETED        3.000E-02


  INCREMENT     4 STARTS. ATTEMPT NUMBER  1, TIME INCREMENT  1.000E-02

  NUMBER OF EQUATIONS =      2693     NUMBER OF RHS =    1
  NUMBER OF FLOATING PT. OPERATIONS =  1.90E+05

     CHECK POINT   START OF SOLVER    

     CHECK POINT  END OF SOLVER       

       ELAPSED USER TIME (SEC)      =   0.0000    
       ELAPSED SYSTEM TIME (SEC)    =   0.0000    
       ELAPSED TOTAL CPU TIME (SEC) =   0.0000    
       ELAPSED WALLCLOCK TIME (SEC) =          0

               CONVERGENCE CHECKS FOR EQUILIBRIUM ITERATION     1


 AVERAGE FORCE                      6.454E-02   TIME AVG. FORCE       3.832E-02
 LARGEST RESIDUAL FORCE            -1.682E-13   AT NODE        387   DOF  2
   INSTANCE: INST                                                                            
 LARGEST INCREMENT OF DISP.        -9.000E-04   AT NODE          1   DOF  2
   INSTANCE: {assembly node}                                                                 
 LARGEST CORRECTION TO DISP.        3.629E-18   AT NODE        160   DOF  1
   INSTANCE: INST                                                                            
          THE FORCE     EQUILIBRIUM RESPONSE WAS LINEAR IN THIS INCREMENT

 AVERAGE MOMENT                     1.059E-02   TIME AVG. MOMENT      6.391E-03
 LARGEST RESIDUAL MOMENT            8.066E-16   AT NODE        123   DOF  6
   INSTANCE: INST                                                                            
 LARGEST INCREMENT OF ROTATION     -1.023E-03   AT NODE        352   DOF  6
   INSTANCE: INST                                                                            
 LARGEST CORRECTION TO ROTATION     3.869E-18   AT NODE        521   DOF  6
   INSTANCE: INST                                                                            
          THE MOMENT    EQUILIBRIUM RESPONSE WAS LINEAR IN THIS INCREMENT

 ITERATION SUMMARY FOR THE INCREMENT:   1 TOTAL ITERATIONS, OF WHICH
   0 ARE SEVERE DISCONTINUITY ITERATIONS AND  1 ARE EQUILIBRIUM ITERATIONS.

 TIME INCREMENT COMPLETED  1.000E-02,  FRACTION OF STEP COMPLETED  4.000E-02
 STEP TIME COMPLETED       4.000E-02,  TOTAL TIME COMPLETED        4.000E-02


  INCREMENT     5 STARTS. ATTEMPT NUMBER  1, TIME INCREMENT  1.000E-02

  NUMBER OF EQUATIONS =      2693     NUMBER OF RHS =    1
  NUMBER OF FLOATING PT. OPERATIONS =  1.90E+05

     CHECK POINT   START OF SOLVER    

     CHECK POINT  END OF SOLVER       

       ELAPSED USER TIME (SEC)      =   0.0000    
       ELAPSED SYSTEM TIME (SEC)    =   0.0000    
       ELAPSED TOTAL CPU TIME (SEC) =   0.0000    
       ELAPSED WALLCLOCK TIME (SEC) =          0

               CONVERGENCE CHECKS FOR EQUILIBRIUM ITERATION     1


 AVERAGE FORCE                      8.067E-02   TIME AVG. FORCE       4.679E-02
 LARGEST RESIDUAL FORCE            -2.380E-13   AT NODE        388   DOF  2
   INSTANCE: INST                                                                            
 LARGEST INCREMENT OF DISP.        -9.000E-04   AT NODE          1   DOF  2
   INSTANCE: {assembly node}                                                                 
 LARGEST CORRECTION TO DISP.        5.035E-18   AT NODE        119   DOF  2
   INSTANCE: INST                                                                            
          THE FORCE     EQUILIBRIUM RESPONSE WAS LINEAR IN THIS INCREMENT

 AVERAGE MOMENT                     1.323E-02   TIME AVG. MOMENT      7.759E-03
 LARGEST RESIDUAL MOMENT           -7.910E-16   AT NODE        377   DOF  6
   INSTANCE: INST                                                                            
 LARGEST INCREMENT OF ROTATION      1.023E-03   AT NODE        158   DOF  6
   INSTANCE: INST                                                                            
 LARGEST CORRECTION TO ROTATION     5.997E-18   AT NODE        804   DOF  6
   INSTANCE: INST                                                                            
          THE MOMENT    EQUILIBRIUM RESPONSE WAS LINEAR IN THIS INCREMENT

 ITERATION SUMMARY FOR THE INCREMENT:   1 TOTAL ITERATIONS, OF WHICH
   0 ARE SEVERE DISCONTINUITY ITERATIONS AND  1 ARE EQUILIBRIUM ITERATIONS.

 TIME INCREMENT COMPLETED  1.000E-02,  FRACTION OF STEP COMPLETED  5.000E-02
 STEP TIME COMPLETED       5.000E-02,  TOTAL TIME COMPLETED        5.000E-02


  INCREMENT     6 STARTS. ATTEMPT NUMBER  1, TIME INCREMENT  1.000E-02

  NUMBER OF EQUATIONS =      2693     NUMBER OF RHS =    1
  NUMBER OF FLOATING PT. OPERATIONS =  1.90E+05

     CHECK POINT   START OF SOLVER    

     CHECK POINT  END OF SOLVER       

       ELAPSED USER TIME (SEC)      =   0.0000    
       ELAPSED SYSTEM TIME (SEC)    =   0.0000    
       ELAPSED TOTAL CPU TIME (SEC) =   0.0000    
       ELAPSED WALLCLOCK TIME (SEC) =          0

               CONVERGENCE CHECKS FOR EQUILIBRIUM ITERATION     1


 AVERAGE FORCE                      9.681E-02   TIME AVG. FORCE       5.513E-02
 LARGEST RESIDUAL FORCE            -2.098E-13   AT NODE         12   DOF  2
   INSTANCE: INST                                                                            
 LARGEST INCREMENT OF DISP.        -9.000E-04   AT NODE          1   DOF  2
   INSTANCE: {assembly node}                                                                 
 LARGEST CORRECTION TO DISP.       -4.160E-18   AT NODE        137   DOF  2
   INSTANCE: INST                                                                            
          THE FORCE     EQUILIBRIUM RESPONSE WAS LINEAR IN THIS INCREMENT

 AVERAGE MOMENT                     1.588E-02   TIME AVG. MOMENT      9.112E-03
 LARGEST RESIDUAL MOMENT           -6.800E-16   AT NODE        104   DOF  6
   INSTANCE: INST                                                                            
 LARGEST INCREMENT OF ROTATION      1.023E-03   AT NODE        594   DOF  6
   INSTANCE: INST                                                                            
 LARGEST CORRECTION TO ROTATION     7.261E-18   AT NODE        832   DOF  6
   INSTANCE: INST                                                                            
          THE MOMENT    EQUILIBRIUM RESPONSE WAS LINEAR IN THIS INCREMENT

 ITERATION SUMMARY FOR THE INCREMENT:   1 TOTAL ITERATIONS, OF WHICH
   0 ARE SEVERE DISCONTINUITY ITERATIONS AND  1 ARE EQUILIBRIUM ITERATIONS.

 TIME INCREMENT COMPLETED  1.000E-02,  FRACTION OF STEP COMPLETED  6.000E-02
 STEP TIME COMPLETED       6.000E-02,  TOTAL TIME COMPLETED        6.000E-02


  INCREMENT     7 STARTS. ATTEMPT NUMBER  1, TIME INCREMENT  1.000E-02

  NUMBER OF EQUATIONS =      2693     NUMBER OF RHS =    1
  NUMBER OF FLOATING PT. OPERATIONS =  1.90E+05

     CHECK POINT   START OF SOLVER    

     CHECK POINT  END OF SOLVER       

       ELAPSED USER TIME (SEC)      =   0.0000    
       ELAPSED SYSTEM TIME (SEC)    =   0.0000    
       ELAPSED TOTAL CPU TIME (SEC) =   0.0000    
       ELAPSED WALLCLOCK TIME (SEC) =          0

               CONVERGENCE CHECKS FOR EQUILIBRIUM ITERATION     1


 AVERAGE FORCE                      0.113       TIME AVG. FORCE       6.339E-02
 LARGEST RESIDUAL FORCE            -3.171E-13   AT NODE        555   DOF  2
   INSTANCE: INST                                                                            
 LARGEST INCREMENT OF DISP.        -9.000E-04   AT NODE          1   DOF  2
   INSTANCE: {assembly node}                                                                 
 LARGEST CORRECTION TO DISP.        4.632E-18   AT NODE        103   DOF  2
   INSTANCE: INST                                                                            
          THE FORCE     EQUILIBRIUM RESPONSE WAS LINEAR IN THIS INCREMENT

 AVERAGE MOMENT                     1.852E-02   TIME AVG. MOMENT      1.046E-02
 LARGEST RESIDUAL MOMENT           -1.433E-15   AT NODE        134   DOF  6
   INSTANCE: INST                                                                            
 LARGEST INCREMENT OF ROTATION      1.023E-03   AT NODE        158   DOF  6
   INSTANCE: INST                                                                            
 LARGEST CORRECTION TO ROTATION    -9.874E-18   AT NODE        890   DOF  6
   INSTANCE: INST                                                                            
          THE MOMENT    EQUILIBRIUM RESPONSE WAS LINEAR IN THIS INCREMENT

 ITERATION SUMMARY FOR THE INCREMENT:   1 TOTAL ITERATIONS, OF WHICH
   0 ARE SEVERE DISCONTINUITY ITERATIONS AND  1 ARE EQUILIBRIUM ITERATIONS.

 TIME INCREMENT COMPLETED  1.000E-02,  FRACTION OF STEP COMPLETED  7.000E-02
 STEP TIME COMPLETED       7.000E-02,  TOTAL TIME COMPLETED        7.000E-02


  INCREMENT     8 STARTS. ATTEMPT NUMBER  1, TIME INCREMENT  1.000E-02

  NUMBER OF EQUATIONS =      2693     NUMBER OF RHS =    1
  NUMBER OF FLOATING PT. OPERATIONS =  1.90E+05

     CHECK POINT   START OF SOLVER    

     CHECK POINT  END OF SOLVER       

       ELAPSED USER TIME (SEC)      =   0.0000    
       ELAPSED SYSTEM TIME (SEC)    =   0.0000    
       ELAPSED TOTAL CPU TIME (SEC) =   0.0000    
       ELAPSED WALLCLOCK TIME (SEC) =          0

               CONVERGENCE CHECKS FOR EQUILIBRIUM ITERATION     1


 AVERAGE FORCE                      0.129       TIME AVG. FORCE       7.160E-02
 LARGEST RESIDUAL FORCE            -3.296E-13   AT NODE        116   DOF  2
   INSTANCE: INST                                                                            
 LARGEST INCREMENT OF DISP.        -9.000E-04   AT NODE          1   DOF  2
   INSTANCE: {assembly node}                                                                 
 LARGEST CORRECTION TO DISP.       -6.246E-18   AT NODE        557   DOF  2
   INSTANCE: INST                                                                            
          THE FORCE     EQUILIBRIUM RESPONSE WAS LINEAR IN THIS INCREMENT

 AVERAGE MOMENT                     2.117E-02   TIME AVG. MOMENT      1.180E-02
 LARGEST RESIDUAL MOMENT           -1.392E-15   AT NODE        208   DOF  6
   INSTANCE: INST                                                                            
 LARGEST INCREMENT OF ROTATION     -1.023E-03   AT NODE        466   DOF  6
   INSTANCE: INST                                                                            
 LARGEST CORRECTION TO ROTATION    -1.152E-17   AT NODE         90   DOF  6
   INSTANCE: INST                                                                            
          THE MOMENT    EQUILIBRIUM RESPONSE WAS LINEAR IN THIS INCREMENT

 ITERATION SUMMARY FOR THE INCREMENT:   1 TOTAL ITERATIONS, OF WHICH
   0 ARE SEVERE DISCONTINUITY ITERATIONS AND  1 ARE EQUILIBRIUM ITERATIONS.

 TIME INCREMENT COMPLETED  1.000E-02,  FRACTION OF STEP COMPLETED  8.000E-02
 STEP TIME COMPLETED       8.000E-02,  TOTAL TIME COMPLETED        8.000E-02


  INCREMENT     9 STARTS. ATTEMPT NUMBER  1, TIME INCREMENT  1.000E-02

  NUMBER OF EQUATIONS =      2693     NUMBER OF RHS =    1
  NUMBER OF FLOATING PT. OPERATIONS =  1.90E+05

     CHECK POINT   START OF SOLVER    

     CHECK POINT  END OF SOLVER       

       ELAPSED USER TIME (SEC)      =   0.0000    
       ELAPSED SYSTEM TIME (SEC)    =   0.0000    
       ELAPSED TOTAL CPU TIME (SEC) =   0.0000    
       ELAPSED WALLCLOCK TIME (SEC) =          0

               CONVERGENCE CHECKS FOR EQUILIBRIUM ITERATION     1


 AVERAGE FORCE                      0.145       TIME AVG. FORCE       7.978E-02
 LARGEST RESIDUAL FORCE             2.888E-13   AT NODE        117   DOF  2
   INSTANCE: INST                                                                            
 LARGEST INCREMENT OF DISP.        -9.000E-04   AT NODE          1   DOF  2
   INSTANCE: {assembly node}                                                                 
 LARGEST CORRECTION TO DISP.       -9.223E-18   AT NODE        146   DOF  2
   INSTANCE: INST                                                                            
          THE FORCE     EQUILIBRIUM RESPONSE WAS LINEAR IN THIS INCREMENT

 AVERAGE MOMENT                     2.382E-02   TIME AVG. MOMENT      1.313E-02
 LARGEST RESIDUAL MOMENT            1.527E-15   AT NODE        377   DOF  6
   INSTANCE: INST                                                                            
 LARGEST INCREMENT OF ROTATION     -1.023E-03   AT NODE        352   DOF  6
   INSTANCE: INST                                                                            
 LARGEST CORRECTION TO ROTATION    -1.335E-17   AT NODE        192   DOF  6
   INSTANCE: INST                                                                            
          THE MOMENT    EQUILIBRIUM RESPONSE WAS LINEAR IN THIS INCREMENT

 ITERATION SUMMARY FOR THE INCREMENT:   1 TOTAL ITERATIONS, OF WHICH
   0 ARE SEVERE DISCONTINUITY ITERATIONS AND  1 ARE EQUILIBRIUM ITERATIONS.

 TIME INCREMENT COMPLETED  1.000E-02,  FRACTION OF STEP COMPLETED  9.000E-02
 STEP TIME COMPLETED       9.000E-02,  TOTAL TIME COMPLETED        9.000E-02


  INCREMENT    10 STARTS. ATTEMPT NUMBER  1, TIME INCREMENT  1.000E-02

  NUMBER OF EQUATIONS =      2693     NUMBER OF RHS =    1
  NUMBER OF FLOATING PT. OPERATIONS =  1.90E+05

     CHECK POINT   START OF SOLVER    

     CHECK POINT  END OF SOLVER       

       ELAPSED USER TIME (SEC)      =   0.0000    
       ELAPSED SYSTEM TIME (SEC)    =   0.0000    
       ELAPSED TOTAL CPU TIME (SEC) =   0.0000    
       ELAPSED WALLCLOCK TIME (SEC) =          0

               CONVERGENCE CHECKS FOR EQUILIBRIUM ITERATION     1


 AVERAGE FORCE                      0.161       TIME AVG. FORCE       8.793E-02
 LARGEST RESIDUAL FORCE            -2.974E-13   AT NODE         84   DOF  2
   INSTANCE: INST                                                                            
 LARGEST INCREMENT OF DISP.        -9.000E-04   AT NODE          1   DOF  2
   INSTANCE: {assembly node}                                                                 
 LARGEST CORRECTION TO DISP.       -8.786E-18   AT NODE        595   DOF  2
   INSTANCE: INST                                                                            
          THE FORCE     EQUILIBRIUM RESPONSE WAS LINEAR IN THIS INCREMENT

 AVERAGE MOMENT                     2.646E-02   TIME AVG. MOMENT      1.447E-02
 LARGEST RESIDUAL MOMENT            1.610E-15   AT NODE        392   DOF  6
   INSTANCE: INST                                                                            
 LARGEST INCREMENT OF ROTATION      1.023E-03   AT NODE        158   DOF  6
   INSTANCE: INST                                                                            
 LARGEST CORRECTION TO ROTATION     1.507E-17   AT NODE        615   DOF  6
   INSTANCE: INST                                                                            
          THE MOMENT    EQUILIBRIUM RESPONSE WAS LINEAR IN THIS INCREMENT

 ITERATION SUMMARY FOR THE INCREMENT:   1 TOTAL ITERATIONS, OF WHICH
   0 ARE SEVERE DISCONTINUITY ITERATIONS AND  1 ARE EQUILIBRIUM ITERATIONS.

 TIME INCREMENT COMPLETED  1.000E-02,  FRACTION OF STEP COMPLETED  0.100    
 STEP TIME COMPLETED       0.100    ,  TOTAL TIME COMPLETED        0.100    


  INCREMENT    11 STARTS. ATTEMPT NUMBER  1, TIME INCREMENT  1.000E-02

  NUMBER OF EQUATIONS =      2693     NUMBER OF RHS =    1
  NUMBER OF FLOATING PT. OPERATIONS =  1.90E+05

     CHECK POINT   START OF SOLVER    

     CHECK POINT  END OF SOLVER       

       ELAPSED USER TIME (SEC)      =   0.0000    
       ELAPSED SYSTEM TIME (SEC)    =  0.10000    
       ELAPSED TOTAL CPU TIME (SEC) =  0.10000    
       ELAPSED WALLCLOCK TIME (SEC) =          0

               CONVERGENCE CHECKS FOR EQUILIBRIUM ITERATION     1


 AVERAGE FORCE                      0.177       TIME AVG. FORCE       9.607E-02
 LARGEST RESIDUAL FORCE            -3.982E-13   AT NODE         87   DOF  2
   INSTANCE: INST                                                                            
 LARGEST INCREMENT OF DISP.        -9.000E-04   AT NODE          1   DOF  2
   INSTANCE: {assembly node}                                                                 
 LARGEST CORRECTION TO DISP.       -1.154E-17   AT NODE        252   DOF  1
   INSTANCE: INST                                                                            
          THE FORCE     EQUILIBRIUM RESPONSE WAS LINEAR IN THIS INCREMENT

 AVERAGE MOMENT                     2.911E-02   TIME AVG. MOMENT      1.580E-02
 LARGEST RESIDUAL MOMENT            1.645E-15   AT NODE        126   DOF  6
   INSTANCE: INST                                                                            
 LARGEST INCREMENT OF ROTATION      1.023E-03   AT NODE        594   DOF  6
   INSTANCE: INST                                                                            
 LARGEST CORRECTION TO ROTATION    -1.519E-17   AT NODE         20   DOF  6
   INSTANCE: INST                                                                            
          THE MOMENT    EQUILIBRIUM RESPONSE WAS LINEAR IN THIS INCREMENT

 ITERATION SUMMARY FOR THE INCREMENT:   1 TOTAL ITERATIONS, OF WHICH
   0 ARE SEVERE DISCONTINUITY ITERATIONS AND  1 ARE EQUILIBRIUM ITERATIONS.

 TIME INCREMENT COMPLETED  1.000E-02,  FRACTION OF STEP COMPLETED  0.110    
 STEP TIME COMPLETED       0.110    ,  TOTAL TIME COMPLETED        0.110    


  INCREMENT    12 STARTS. ATTEMPT NUMBER  1, TIME INCREMENT  1.000E-02

  NUMBER OF EQUATIONS =      2693     NUMBER OF RHS =    1
  NUMBER OF FLOATING PT. OPERATIONS =  1.90E+05

     CHECK POINT   START OF SOLVER    

     CHECK POINT  END OF SOLVER       

       ELAPSED USER TIME (SEC)      =   0.0000    
       ELAPSED SYSTEM TIME (SEC)    =   0.0000    
       ELAPSED TOTAL CPU TIME (SEC) =   0.0000    
       ELAPSED WALLCLOCK TIME (SEC) =          0

               CONVERGENCE CHECKS FOR EQUILIBRIUM ITERATION     1


 AVERAGE FORCE                      0.194       TIME AVG. FORCE       0.104    
 LARGEST RESIDUAL FORCE            -3.717E-13   AT NODE         13   DOF  2
   INSTANCE: INST                                                                            
 LARGEST INCREMENT OF DISP.        -9.000E-04   AT NODE          1   DOF  2
   INSTANCE: {assembly node}                                                                 
 LARGEST CORRECTION TO DISP.        8.568E-18   AT NODE        471   DOF  2
   INSTANCE: INST                                                                            
          THE FORCE     EQUILIBRIUM RESPONSE WAS LINEAR IN THIS INCREMENT

 AVERAGE MOMENT                     3.176E-02   TIME AVG. MOMENT      1.713E-02
 LARGEST RESIDUAL MOMENT           -1.936E-15   AT NODE        377   DOF  6
   INSTANCE: INST                                                                            
 LARGEST INCREMENT OF ROTATION     -1.023E-03   AT NODE        466   DOF  6
   INSTANCE: INST                                                                            
 LARGEST CORRECTION TO ROTATION     1.492E-17   AT NODE        167   DOF  6
   INSTANCE: INST                                                                            
          THE MOMENT    EQUILIBRIUM RESPONSE WAS LINEAR IN THIS INCREMENT

 ITERATION SUMMARY FOR THE INCREMENT:   1 TOTAL ITERATIONS, OF WHICH
   0 ARE SEVERE DISCONTINUITY ITERATIONS AND  1 ARE EQUILIBRIUM ITERATIONS.

 TIME INCREMENT COMPLETED  1.000E-02,  FRACTION OF STEP COMPLETED  0.120    
 STEP TIME COMPLETED       0.120    ,  TOTAL TIME COMPLETED        0.120    


  INCREMENT    13 STARTS. ATTEMPT NUMBER  1, TIME INCREMENT  1.000E-02

  NUMBER OF EQUATIONS =      2693     NUMBER OF RHS =    1
  NUMBER OF FLOATING PT. OPERATIONS =  1.90E+05

     CHECK POINT   START OF SOLVER    

     CHECK POINT  END OF SOLVER       

       ELAPSED USER TIME (SEC)      =   0.0000    
       ELAPSED SYSTEM TIME (SEC)    =   0.0000    
       ELAPSED TOTAL CPU TIME (SEC) =   0.0000    
       ELAPSED WALLCLOCK TIME (SEC) =          0

               CONVERGENCE CHECKS FOR EQUILIBRIUM ITERATION     1


 AVERAGE FORCE                      0.210       TIME AVG. FORCE       0.112    
 LARGEST RESIDUAL FORCE            -3.530E-13   AT NODE        119   DOF  2
   INSTANCE: INST                                                                            
 LARGEST INCREMENT OF DISP.        -9.000E-04   AT NODE          1   DOF  2
   INSTANCE: {assembly node}                                                                 
 LARGEST CORRECTION TO DISP.        8.902E-18   AT NODE        278   DOF  1
   INSTANCE: INST                                                                            
          THE FORCE     EQUILIBRIUM RESPONSE WAS LINEAR IN THIS INCREMENT

 AVERAGE MOMENT                     3.440E-02   TIME AVG. MOMENT      1.846E-02
 LARGEST RESIDUAL MOMENT            1.960E-15   AT NODE        576   DOF  6
   INSTANCE: INST                                                                            
 LARGEST INCREMENT OF ROTATION     -1.023E-03   AT NODE        352   DOF  6
   INSTANCE: INST                                                                            
 LARGEST CORRECTION TO ROTATION    -9.570E-18   AT NODE        611   DOF  6
   INSTANCE: INST                                                                            
          THE MOMENT    EQUILIBRIUM RESPONSE WAS LINEAR IN THIS INCREMENT

 ITERATION SUMMARY FOR THE INCREMENT:   1 TOTAL ITERATIONS, OF WHICH
   0 ARE SEVERE DISCONTINUITY ITERATIONS AND  1 ARE EQUILIBRIUM ITERATIONS.

 TIME INCREMENT COMPLETED  1.000E-02,  FRACTION OF STEP COMPLETED  0.130    
 STEP TIME COMPLETED       0.130    ,  TOTAL TIME COMPLETED        0.130    


  INCREMENT    14 STARTS. ATTEMPT NUMBER  1, TIME INCREMENT  1.000E-02

  NUMBER OF EQUATIONS =      2693     NUMBER OF RHS =    1
  NUMBER OF FLOATING PT. OPERATIONS =  1.90E+05

     CHECK POINT   START OF SOLVER    

     CHECK POINT  END OF SOLVER       

       ELAPSED USER TIME (SEC)      =   0.0000    
       ELAPSED SYSTEM TIME (SEC)    =   0.0000    
       ELAPSED TOTAL CPU TIME (SEC) =   0.0000    
       ELAPSED WALLCLOCK TIME (SEC) =          0

               CONVERGENCE CHECKS FOR EQUILIBRIUM ITERATION     1


 AVERAGE FORCE                      0.226       TIME AVG. FORCE       0.120    
 LARGEST RESIDUAL FORCE             5.512E-13   AT NODE        112   DOF  2
   INSTANCE: INST                                                                            
 LARGEST INCREMENT OF DISP.        -9.000E-04   AT NODE          1   DOF  2
   INSTANCE: {assembly node}                                                                 
 LARGEST CORRECTION TO DISP.        1.017E-17   AT NODE        362   DOF  2
   INSTANCE: INST                                                                            
          THE FORCE     EQUILIBRIUM RESPONSE WAS LINEAR IN THIS INCREMENT

 AVERAGE MOMENT                     3.705E-02   TIME AVG. MOMENT      1.978E-02
 LARGEST RESIDUAL MOMENT           -3.025E-15   AT NODE        107   DOF  6
   INSTANCE: INST                                                                            
 LARGEST INCREMENT OF ROTATION      1.023E-03   AT NODE        158   DOF  6
   INSTANCE: INST                                                                            
 LARGEST CORRECTION TO ROTATION     1.278E-17   AT NODE        638   DOF  6
   INSTANCE: INST                                                                            
          THE MOMENT    EQUILIBRIUM RESPONSE WAS LINEAR IN THIS INCREMENT

 ITERATION SUMMARY FOR THE INCREMENT:   1 TOTAL ITERATIONS, OF WHICH
   0 ARE SEVERE DISCONTINUITY ITERATIONS AND  1 ARE EQUILIBRIUM ITERATIONS.

 TIME INCREMENT COMPLETED  1.000E-02,  FRACTION OF STEP COMPLETED  0.140    
 STEP TIME COMPLETED       0.140    ,  TOTAL TIME COMPLETED        0.140    


  INCREMENT    15 STARTS. ATTEMPT NUMBER  1, TIME INCREMENT  1.000E-02

  NUMBER OF EQUATIONS =      2693     NUMBER OF RHS =    1
  NUMBER OF FLOATING PT. OPERATIONS =  1.90E+05

     CHECK POINT   START OF SOLVER    

     CHECK POINT  END OF SOLVER       

       ELAPSED USER TIME (SEC)      =   0.0000    
       ELAPSED SYSTEM TIME (SEC)    =   0.0000    
       ELAPSED TOTAL CPU TIME (SEC) =   0.0000    
       ELAPSED WALLCLOCK TIME (SEC) =          0

               CONVERGENCE CHECKS FOR EQUILIBRIUM ITERATION     1


 AVERAGE FORCE                      0.242       TIME AVG. FORCE       0.129    
 LARGEST RESIDUAL FORCE            -5.174E-13   AT NODE        561   DOF  2
   INSTANCE: INST                                                                            
 LARGEST INCREMENT OF DISP.        -9.000E-04   AT NODE          1   DOF  2
   INSTANCE: {assembly node}                                                                 
 LARGEST CORRECTION TO DISP.       -1.559E-17   AT NODE        378   DOF  2
   INSTANCE: INST                                                                            
          THE FORCE     EQUILIBRIUM RESPONSE WAS LINEAR IN THIS INCREMENT

 AVERAGE MOMENT                     3.970E-02   TIME AVG. MOMENT      2.111E-02
 LARGEST RESIDUAL MOMENT           -3.095E-15   AT NODE        564   DOF  6
   INSTANCE: INST                                                                            
 LARGEST INCREMENT OF ROTATION     -1.023E-03   AT NODE        352   DOF  6
   INSTANCE: INST                                                                            
 LARGEST CORRECTION TO ROTATION    -2.685E-17   AT NODE        469   DOF  6
   INSTANCE: INST                                                                            
          THE MOMENT    EQUILIBRIUM RESPONSE WAS LINEAR IN THIS INCREMENT

 ITERATION SUMMARY FOR THE INCREMENT:   1 TOTAL ITERATIONS, OF WHICH
   0 ARE SEVERE DISCONTINUITY ITERATIONS AND  1 ARE EQUILIBRIUM ITERATIONS.

 TIME INCREMENT COMPLETED  1.000E-02,  FRACTION OF STEP COMPLETED  0.150    
 STEP TIME COMPLETED       0.150    ,  TOTAL TIME COMPLETED        0.150    


  INCREMENT    16 STARTS. ATTEMPT NUMBER  1, TIME INCREMENT  1.000E-02

  NUMBER OF EQUATIONS =      2693     NUMBER OF RHS =    1
  NUMBER OF FLOATING PT. OPERATIONS =  1.90E+05

     CHECK POINT   START OF SOLVER    

     CHECK POINT  END OF SOLVER       

       ELAPSED USER TIME (SEC)      =   0.0000    
       ELAPSED SYSTEM TIME (SEC)    =   0.0000    
       ELAPSED TOTAL CPU TIME (SEC) =   0.0000    
       ELAPSED WALLCLOCK TIME (SEC) =          0

               CONVERGENCE CHECKS FOR EQUILIBRIUM ITERATION     1


 AVERAGE FORCE                      0.258       TIME AVG. FORCE       0.137    
 LARGEST RESIDUAL FORCE            -5.489E-13   AT NODE        566   DOF  2
   INSTANCE: INST                                                                            
 LARGEST INCREMENT OF DISP.        -9.000E-04   AT NODE          1   DOF  2
   INSTANCE: {assembly node}                                                                 
 LARGEST CORRECTION TO DISP.       -1.227E-17   AT NODE        153   DOF  2
   INSTANCE: INST                                                                            
          THE FORCE     EQUILIBRIUM RESPONSE WAS LINEAR IN THIS INCREMENT

 AVERAGE MOMENT                     4.234E-02   TIME AVG. MOMENT      2.244E-02
 LARGEST RESIDUAL MOMENT            2.921E-15   AT NODE         91   DOF  6
   INSTANCE: INST                                                                            
 LARGEST INCREMENT OF ROTATION     -1.023E-03   AT NODE        466   DOF  6
   INSTANCE: INST                                                                            
 LARGEST CORRECTION TO ROTATION     3.111E-17   AT NODE        347   DOF  6
   INSTANCE: INST                                                                            
          THE MOMENT    EQUILIBRIUM RESPONSE WAS LINEAR IN THIS INCREMENT

 ITERATION SUMMARY FOR THE INCREMENT:   1 TOTAL ITERATIONS, OF WHICH
   0 ARE SEVERE DISCONTINUITY ITERATIONS AND  1 ARE EQUILIBRIUM ITERATIONS.

 TIME INCREMENT COMPLETED  1.000E-02,  FRACTION OF STEP COMPLETED  0.160    
 STEP TIME COMPLETED       0.160    ,  TOTAL TIME COMPLETED        0.160    


  INCREMENT    17 STARTS. ATTEMPT NUMBER  1, TIME INCREMENT  1.000E-02

  NUMBER OF EQUATIONS =      2693     NUMBER OF RHS =    1
  NUMBER OF FLOATING PT. OPERATIONS =  1.90E+05

     CHECK POINT   START OF SOLVER    

     CHECK POINT  END OF SOLVER       

       ELAPSED USER TIME (SEC)      =   0.0000    
       ELAPSED SYSTEM TIME (SEC)    =   0.0000    
       ELAPSED TOTAL CPU TIME (SEC) =   0.0000    
       ELAPSED WALLCLOCK TIME (SEC) =          0

               CONVERGENCE CHECKS FOR EQUILIBRIUM ITERATION     1


 AVERAGE FORCE                      0.274       TIME AVG. FORCE       0.145    
 LARGEST RESIDUAL FORCE             6.487E-13   AT NODE        119   DOF  2
   INSTANCE: INST                                                                            
 LARGEST INCREMENT OF DISP.        -9.000E-04   AT NODE          1   DOF  2
   INSTANCE: {assembly node}                                                                 
 LARGEST CORRECTION TO DISP.       -1.831E-17   AT NODE         84   DOF  2
   INSTANCE: INST                                                                            
          THE FORCE     EQUILIBRIUM RESPONSE WAS LINEAR IN THIS INCREMENT

 AVERAGE MOMENT                     4.499E-02   TIME AVG. MOMENT      2.376E-02
 LARGEST RESIDUAL MOMENT           -3.275E-15   AT NODE        120   DOF  6
   INSTANCE: INST                                                                            
 LARGEST INCREMENT OF ROTATION     -1.023E-03   AT NODE        352   DOF  6
   INSTANCE: INST                                                                            
 LARGEST CORRECTION TO ROTATION     2.741E-17   AT NODE        705   DOF  6
   INSTANCE: INST                                                                            
          THE MOMENT    EQUILIBRIUM RESPONSE WAS LINEAR IN THIS INCREMENT

 ITERATION SUMMARY FOR THE INCREMENT:   1 TOTAL ITERATIONS, OF WHICH
   0 ARE SEVERE DISCONTINUITY ITERATIONS AND  1 ARE EQUILIBRIUM ITERATIONS.

 TIME INCREMENT COMPLETED  1.000E-02,  FRACTION OF STEP COMPLETED  0.170    
 STEP TIME COMPLETED       0.170    ,  TOTAL TIME COMPLETED        0.170    


  INCREMENT    18 STARTS. ATTEMPT NUMBER  1, TIME INCREMENT  1.000E-02

  NUMBER OF EQUATIONS =      2693     NUMBER OF RHS =    1
  NUMBER OF FLOATING PT. OPERATIONS =  1.90E+05

     CHECK POINT   START OF SOLVER    

     CHECK POINT  END OF SOLVER       

       ELAPSED USER TIME (SEC)      =   0.0000    
       ELAPSED SYSTEM TIME (SEC)    =   0.0000    
       ELAPSED TOTAL CPU TIME (SEC) =   0.0000    
       ELAPSED WALLCLOCK TIME (SEC) =          0

               CONVERGENCE CHECKS FOR EQUILIBRIUM ITERATION     1


 AVERAGE FORCE                      0.287       TIME AVG. FORCE       0.153    
 LARGEST RESIDUAL FORCE            -3.704E-03   AT NODE         16   DOF  1
   INSTANCE: INST                                                                            
 LARGEST INCREMENT OF DISP.        -9.000E-04   AT NODE          1   DOF  2
   INSTANCE: {assembly node}                                                                 
 LARGEST CORRECTION TO DISP.       -4.868E-07   AT NODE          6   DOF  2
   INSTANCE: INST                                                                            
          FORCE     EQUILIBRIUM NOT ACHIEVED WITHIN TOLERANCE.

 AVERAGE MOMENT                     4.762E-02   TIME AVG. MOMENT      2.509E-02
 LARGEST RESIDUAL MOMENT            8.304E-05   AT NODE         16   DOF  6
   INSTANCE: INST                                                                            
 LARGEST INCREMENT OF ROTATION      1.025E-03   AT NODE        594   DOF  6
   INSTANCE: INST                                                                            
 LARGEST CORRECTION TO ROTATION    -4.562E-06   AT NODE        449   DOF  6
   INSTANCE: INST                                                                            
          THE MOMENT    EQUILIBRIUM EQUATIONS HAVE CONVERGED

  NUMBER OF EQUATIONS =      2693     NUMBER OF RHS =    1
  NUMBER OF FLOATING PT. OPERATIONS =  1.90E+05

     CHECK POINT   START OF SOLVER    

     CHECK POINT  END OF SOLVER       

       ELAPSED USER TIME (SEC)      =   0.0000    
       ELAPSED SYSTEM TIME (SEC)    =   0.0000    
       ELAPSED TOTAL CPU TIME (SEC) =   0.0000    
       ELAPSED WALLCLOCK TIME (SEC) =          1
 

 ***WARNING: SOLVER PROBLEM. NUMERICAL SINGULARITY WHEN PROCESSING NODE INST.15 
             D.O.F. 1 RATIO = 33.2660E+12 .
 

 ***WARNING: SOLVER PROBLEM. NUMERICAL SINGULARITY WHEN PROCESSING NODE INST.15 
             D.O.F. 2 RATIO = 138.623E+12  .

               CONVERGENCE CHECKS FOR EQUILIBRIUM ITERATION     2


 AVERAGE FORCE                      0.290       TIME AVG. FORCE       0.153    
 LARGEST RESIDUAL FORCE            -7.707E-13   AT NODE        120   DOF  2
   INSTANCE: INST                                                                            
 LARGEST INCREMENT OF DISP.        -9.000E-04   AT NODE          1   DOF  2
   INSTANCE: {assembly node}                                                                 
 LARGEST CORRECTION TO DISP.       -2.242E-07   AT NODE         16   DOF  2
   INSTANCE: INST                                                                            
          THE FORCE     EQUILIBRIUM EQUATIONS HAVE CONVERGED

 AVERAGE MOMENT                     4.761E-02   TIME AVG. MOMENT      2.509E-02
 LARGEST RESIDUAL MOMENT           -2.970E-15   AT NODE        395   DOF  6
   INSTANCE: INST                                                                            
 LARGEST INCREMENT OF ROTATION      1.026E-03   AT NODE        158   DOF  6
   INSTANCE: INST                                                                            
 LARGEST CORRECTION TO ROTATION     2.152E-06   AT NODE        175   DOF  6
   INSTANCE: INST                                                                            
          THE MOMENT    EQUILIBRIUM EQUATIONS HAVE CONVERGED

 ITERATION SUMMARY FOR THE INCREMENT:   2 TOTAL ITERATIONS, OF WHICH
   0 ARE SEVERE DISCONTINUITY ITERATIONS AND  2 ARE EQUILIBRIUM ITERATIONS.

 TIME INCREMENT COMPLETED  1.000E-02,  FRACTION OF STEP COMPLETED  0.180    
 STEP TIME COMPLETED       0.180    ,  TOTAL TIME COMPLETED        0.180    


  INCREMENT    19 STARTS. ATTEMPT NUMBER  1, TIME INCREMENT  1.000E-02

  NUMBER OF EQUATIONS =      2693     NUMBER OF RHS =    1
  NUMBER OF FLOATING PT. OPERATIONS =  1.90E+05

     CHECK POINT   START OF SOLVER    

     CHECK POINT  END OF SOLVER       

       ELAPSED USER TIME (SEC)      =   0.0000    
       ELAPSED SYSTEM TIME (SEC)    =   0.0000    
       ELAPSED TOTAL CPU TIME (SEC) =   0.0000    
       ELAPSED WALLCLOCK TIME (SEC) =          0
 

 ***WARNING: SOLVER PROBLEM. NUMERICAL SINGULARITY WHEN PROCESSING NODE INST.15 
             D.O.F. 1 RATIO = 34.5443E+12 .
 

 ***WARNING: SOLVER PROBLEM. NUMERICAL SINGULARITY WHEN PROCESSING NODE INST.15 
             D.O.F. 2 RATIO = 123.597E+12  .

               CONVERGENCE CHECKS FOR EQUILIBRIUM ITERATION     1


 AVERAGE FORCE                      0.306       TIME AVG. FORCE       0.161    
 LARGEST RESIDUAL FORCE            -9.357E-13   AT NODE        133   DOF  2
   INSTANCE: INST                                                                            
 LARGEST INCREMENT OF DISP.        -9.000E-04   AT NODE          1   DOF  2
   INSTANCE: {assembly node}                                                                 
 LARGEST CORRECTION TO DISP.       -2.872E-06   AT NODE        175   DOF  2
   INSTANCE: INST                                                                            
          THE FORCE     EQUILIBRIUM RESPONSE WAS LINEAR IN THIS INCREMENT

 AVERAGE MOMENT                     5.016E-02   TIME AVG. MOMENT      2.641E-02
 LARGEST RESIDUAL MOMENT           -3.955E-15   AT NODE        551   DOF  6
   INSTANCE: INST                                                                            
 LARGEST INCREMENT OF ROTATION     -1.041E-03   AT NODE        466   DOF  6
   INSTANCE: INST                                                                            
 LARGEST CORRECTION TO ROTATION    -2.716E-05   AT NODE        336   DOF  6
   INSTANCE: INST                                                                            
          THE MOMENT    EQUILIBRIUM RESPONSE WAS LINEAR IN THIS INCREMENT

 ITERATION SUMMARY FOR THE INCREMENT:   1 TOTAL ITERATIONS, OF WHICH
   0 ARE SEVERE DISCONTINUITY ITERATIONS AND  1 ARE EQUILIBRIUM ITERATIONS.

 TIME INCREMENT COMPLETED  1.000E-02,  FRACTION OF STEP COMPLETED  0.190    
 STEP TIME COMPLETED       0.190    ,  TOTAL TIME COMPLETED        0.190    


  INCREMENT    20 STARTS. ATTEMPT NUMBER  1, TIME INCREMENT  1.000E-02

  NUMBER OF EQUATIONS =      2693     NUMBER OF RHS =    1
  NUMBER OF FLOATING PT. OPERATIONS =  1.90E+05

     CHECK POINT   START OF SOLVER    

     CHECK POINT  END OF SOLVER       

       ELAPSED USER TIME (SEC)      =   0.0000    
       ELAPSED SYSTEM TIME (SEC)    =   0.0000    
       ELAPSED TOTAL CPU TIME (SEC) =   0.0000    
       ELAPSED WALLCLOCK TIME (SEC) =          0

               CONVERGENCE CHECKS FOR EQUILIBRIUM ITERATION     1


 AVERAGE FORCE                      0.313       TIME AVG. FORCE       0.168    
 LARGEST RESIDUAL FORCE            -9.045E-03   AT NODE        450   DOF  1
   INSTANCE: INST                                                                            
 LARGEST INCREMENT OF DISP.        -9.000E-04   AT NODE          1   DOF  2
   INSTANCE: {assembly node}                                                                 
 LARGEST CORRECTION TO DISP.       -1.587E-06   AT NODE        771   DOF  2
   INSTANCE: INST                                                                            
          FORCE     EQUILIBRIUM NOT ACHIEVED WITHIN TOLERANCE.

 AVERAGE MOMENT                     5.265E-02   TIME AVG. MOMENT      2.772E-02
 LARGEST RESIDUAL MOMENT           -1.720E-04   AT NODE        175   DOF  6
   INSTANCE: INST                                                                            
 LARGEST INCREMENT OF ROTATION     -1.050E-03   AT NODE        352   DOF  6
   INSTANCE: INST                                                                            
 LARGEST CORRECTION TO ROTATION     1.473E-05   AT NODE        838   DOF  6
   INSTANCE: INST                                                                            
          MOMENT    EQUILIBRIUM NOT ACHIEVED WITHIN TOLERANCE.

  NUMBER OF EQUATIONS =      2693     NUMBER OF RHS =    1
  NUMBER OF FLOATING PT. OPERATIONS =  1.90E+05

     CHECK POINT   START OF SOLVER    

     CHECK POINT  END OF SOLVER       

       ELAPSED USER TIME (SEC)      =   0.0000    
       ELAPSED SYSTEM TIME (SEC)    =   0.0000    
       ELAPSED TOTAL CPU TIME (SEC) =   0.0000    
       ELAPSED WALLCLOCK TIME (SEC) =          0
 

 ***WARNING: SOLVER PROBLEM. NUMERICAL SINGULARITY WHEN PROCESSING NODE INST.15 
             D.O.F. 1 RATIO = 27.4025E+12 .
 

 ***WARNING: SOLVER PROBLEM. NUMERICAL SINGULARITY WHEN PROCESSING NODE INST.15 
             D.O.F. 2 RATIO = 127.692E+12  .

               CONVERGENCE CHECKS FOR EQUILIBRIUM ITERATION     2


 AVERAGE FORCE                      0.321       TIME AVG. FORCE       0.169    
 LARGEST RESIDUAL FORCE             7.308E-13   AT NODE        121   DOF  2
   INSTANCE: INST                                                                            
 LARGEST INCREMENT OF DISP.        -9.000E-04   AT NODE          1   DOF  2
   INSTANCE: {assembly node}                                                                 
 LARGEST CORRECTION TO DISP.        6.466E-07   AT NODE        336   DOF  2
   INSTANCE: INST                                                                            
          THE FORCE     EQUILIBRIUM EQUATIONS HAVE CONVERGED

 AVERAGE MOMENT                     5.264E-02   TIME AVG. MOMENT      2.772E-02
 LARGEST RESIDUAL MOMENT            3.164E-15   AT NODE        109   DOF  6
   INSTANCE: INST                                                                            
 LARGEST INCREMENT OF ROTATION     -1.054E-03   AT NODE        352   DOF  6
   INSTANCE: INST                                                                            
 LARGEST CORRECTION TO ROTATION    -6.084E-06   AT NODE        451   DOF  6
   INSTANCE: INST                                                                            
          THE MOMENT    EQUILIBRIUM EQUATIONS HAVE CONVERGED

 ITERATION SUMMARY FOR THE INCREMENT:   2 TOTAL ITERATIONS, OF WHICH
   0 ARE SEVERE DISCONTINUITY ITERATIONS AND  2 ARE EQUILIBRIUM ITERATIONS.

 TIME INCREMENT COMPLETED  1.000E-02,  FRACTION OF STEP COMPLETED  0.200    
 STEP TIME COMPLETED       0.200    ,  TOTAL TIME COMPLETED        0.200    


  INCREMENT    21 STARTS. ATTEMPT NUMBER  1, TIME INCREMENT  1.000E-02

  NUMBER OF EQUATIONS =      2693     NUMBER OF RHS =    1
  NUMBER OF FLOATING PT. OPERATIONS =  1.90E+05

     CHECK POINT   START OF SOLVER    

     CHECK POINT  END OF SOLVER       

       ELAPSED USER TIME (SEC)      =   0.0000    
       ELAPSED SYSTEM TIME (SEC)    =   0.0000    
       ELAPSED TOTAL CPU TIME (SEC) =   0.0000    
       ELAPSED WALLCLOCK TIME (SEC) =          0
 

 ***WARNING: SOLVER PROBLEM. NUMERICAL SINGULARITY WHEN PROCESSING NODE INST.15 
             D.O.F. 1 RATIO = 24.5028E+12 .
 

 ***WARNING: SOLVER PROBLEM. NUMERICAL SINGULARITY WHEN PROCESSING NODE INST.15 
             D.O.F. 2 RATIO = 107.755E+12  .

               CONVERGENCE CHECKS FOR EQUILIBRIUM ITERATION     1


 AVERAGE FORCE                      0.336       TIME AVG. FORCE       0.177    
 LARGEST RESIDUAL FORCE             7.210E-13   AT NODE        393   DOF  2
   INSTANCE: INST                                                                            
 LARGEST INCREMENT OF DISP.        -9.000E-04   AT NODE          1   DOF  2
   INSTANCE: {assembly node}                                                                 
 LARGEST CORRECTION TO DISP.       -1.696E-06   AT NODE        450   DOF  2
   INSTANCE: INST                                                                            
          THE FORCE     EQUILIBRIUM RESPONSE WAS LINEAR IN THIS INCREMENT

 AVERAGE MOMENT                     5.508E-02   TIME AVG. MOMENT      2.902E-02
 LARGEST RESIDUAL MOMENT           -3.358E-15   AT NODE        400   DOF  6
   INSTANCE: INST                                                                            
 LARGEST INCREMENT OF ROTATION      1.065E-03   AT NODE        158   DOF  6
   INSTANCE: INST                                                                            
 LARGEST CORRECTION TO ROTATION     1.657E-05   AT NODE        579   DOF  6
   INSTANCE: INST                                                                            
          THE MOMENT    EQUILIBRIUM RESPONSE WAS LINEAR IN THIS INCREMENT

 ITERATION SUMMARY FOR THE INCREMENT:   1 TOTAL ITERATIONS, OF WHICH
   0 ARE SEVERE DISCONTINUITY ITERATIONS AND  1 ARE EQUILIBRIUM ITERATIONS.

 TIME INCREMENT COMPLETED  1.000E-02,  FRACTION OF STEP COMPLETED  0.210    
 STEP TIME COMPLETED       0.210    ,  TOTAL TIME COMPLETED        0.210    


  INCREMENT    22 STARTS. ATTEMPT NUMBER  1, TIME INCREMENT  1.000E-02

  NUMBER OF EQUATIONS =      2693     NUMBER OF RHS =    1
  NUMBER OF FLOATING PT. OPERATIONS =  1.90E+05

     CHECK POINT   START OF SOLVER    

     CHECK POINT  END OF SOLVER       

       ELAPSED USER TIME (SEC)      =   0.0000    
       ELAPSED SYSTEM TIME (SEC)    =   0.0000    
       ELAPSED TOTAL CPU TIME (SEC) =   0.0000    
       ELAPSED WALLCLOCK TIME (SEC) =          0

               CONVERGENCE CHECKS FOR EQUILIBRIUM ITERATION     1


 AVERAGE FORCE                      0.337       TIME AVG. FORCE       0.184    
 LARGEST RESIDUAL FORCE             4.578E-03   AT NODE         10   DOF  2
   INSTANCE: INST                                                                            
 LARGEST INCREMENT OF DISP.        -9.000E-04   AT NODE          1   DOF  2
   INSTANCE: {assembly node}                                                                 
 LARGEST CORRECTION TO DISP.       -1.021E-06   AT NODE        773   DOF  2
   INSTANCE: INST                                                                            
          FORCE     EQUILIBRIUM NOT ACHIEVED WITHIN TOLERANCE.

 AVERAGE MOMENT                     5.747E-02   TIME AVG. MOMENT      3.032E-02
 LARGEST RESIDUAL MOMENT            1.677E-04   AT NODE        515   DOF  6
   INSTANCE: INST                                                                            
 LARGEST INCREMENT OF ROTATION     -1.071E-03   AT NODE        352   DOF  6
   INSTANCE: INST                                                                            
 LARGEST CORRECTION TO ROTATION     1.124E-05   AT NODE        839   DOF  6
   INSTANCE: INST                                                                            
          MOMENT    EQUILIBRIUM NOT ACHIEVED WITHIN TOLERANCE.

  NUMBER OF EQUATIONS =      2693     NUMBER OF RHS =    1
  NUMBER OF FLOATING PT. OPERATIONS =  1.90E+05

     CHECK POINT   START OF SOLVER    

     CHECK POINT  END OF SOLVER       

       ELAPSED USER TIME (SEC)      =   0.0000    
       ELAPSED SYSTEM TIME (SEC)    =   0.0000    
       ELAPSED TOTAL CPU TIME (SEC) =   0.0000    
       ELAPSED WALLCLOCK TIME (SEC) =          0
 

 ***WARNING: SOLVER PROBLEM. NUMERICAL SINGULARITY WHEN PROCESSING NODE INST.15 
             D.O.F. 1 RATIO = 23.0502E+12 .
 

 ***WARNING: SOLVER PROBLEM. NUMERICAL SINGULARITY WHEN PROCESSING NODE INST.15 
             D.O.F. 2 RATIO = 260.881E+12  .

               CONVERGENCE CHECKS FOR EQUILIBRIUM ITERATION     2


 AVERAGE FORCE                      0.350       TIME AVG. FORCE       0.185    
 LARGEST RESIDUAL FORCE            -8.635E-13   AT NODE         96   DOF  2
   INSTANCE: INST                                                                            
 LARGEST INCREMENT OF DISP.        -9.000E-04   AT NODE          1   DOF  2
   INSTANCE: {assembly node}                                                                 
 LARGEST CORRECTION TO DISP.       -2.019E-07   AT NODE          1   DOF  1
   INSTANCE: {assembly node}                                                                 
          THE FORCE     EQUILIBRIUM EQUATIONS HAVE CONVERGED

 AVERAGE MOMENT                     5.746E-02   TIME AVG. MOMENT      3.032E-02
 LARGEST RESIDUAL MOMENT            4.746E-15   AT NODE         97   DOF  6
   INSTANCE: INST                                                                            
 LARGEST INCREMENT OF ROTATION     -1.071E-03   AT NODE        352   DOF  6
   INSTANCE: INST                                                                            
 LARGEST CORRECTION TO ROTATION    -2.206E-06   AT NODE        173   DOF  6
   INSTANCE: INST                                                                            
          THE MOMENT    EQUILIBRIUM EQUATIONS HAVE CONVERGED

 ITERATION SUMMARY FOR THE INCREMENT:   2 TOTAL ITERATIONS, OF WHICH
   0 ARE SEVERE DISCONTINUITY ITERATIONS AND  2 ARE EQUILIBRIUM ITERATIONS.

 TIME INCREMENT COMPLETED  1.000E-02,  FRACTION OF STEP COMPLETED  0.220    
 STEP TIME COMPLETED       0.220    ,  TOTAL TIME COMPLETED        0.220    


  INCREMENT    23 STARTS. ATTEMPT NUMBER  1, TIME INCREMENT  1.000E-02

  NUMBER OF EQUATIONS =      2693     NUMBER OF RHS =    1
  NUMBER OF FLOATING PT. OPERATIONS =  1.90E+05

     CHECK POINT   START OF SOLVER    

     CHECK POINT  END OF SOLVER       

       ELAPSED USER TIME (SEC)      =   0.0000    
       ELAPSED SYSTEM TIME (SEC)    =   0.0000    
       ELAPSED TOTAL CPU TIME (SEC) =   0.0000    
       ELAPSED WALLCLOCK TIME (SEC) =          0
 

 ***WARNING: SOLVER PROBLEM. NUMERICAL SINGULARITY WHEN PROCESSING NODE INST.15 
             D.O.F. 1 RATIO = 29.6396E+12 .
 

 ***WARNING: SOLVER PROBLEM. NUMERICAL SINGULARITY WHEN PROCESSING NODE INST.15 
             D.O.F. 2 RATIO = 188.287E+12  .

               CONVERGENCE CHECKS FOR EQUILIBRIUM ITERATION     1


 AVERAGE FORCE                      0.364       TIME AVG. FORCE       0.193    
 LARGEST RESIDUAL FORCE            -7.530E-13   AT NODE        104   DOF  2
   INSTANCE: INST                                                                            
 LARGEST INCREMENT OF DISP.        -9.000E-04   AT NODE          1   DOF  2
   INSTANCE: {assembly node}                                                                 
 LARGEST CORRECTION TO DISP.       -2.667E-06   AT NODE        616   DOF  2
   INSTANCE: INST                                                                            
          THE FORCE     EQUILIBRIUM RESPONSE WAS LINEAR IN THIS INCREMENT

 AVERAGE MOMENT                     5.968E-02   TIME AVG. MOMENT      3.159E-02
 LARGEST RESIDUAL MOMENT            4.094E-15   AT NODE        108   DOF  6
   INSTANCE: INST                                                                            
 LARGEST INCREMENT OF ROTATION     -1.050E-03   AT NODE        352   DOF  6
   INSTANCE: INST                                                                            
 LARGEST CORRECTION TO ROTATION    -2.542E-05   AT NODE        306   DOF  6
   INSTANCE: INST                                                                            
          THE MOMENT    EQUILIBRIUM RESPONSE WAS LINEAR IN THIS INCREMENT

 ITERATION SUMMARY FOR THE INCREMENT:   1 TOTAL ITERATIONS, OF WHICH
   0 ARE SEVERE DISCONTINUITY ITERATIONS AND  1 ARE EQUILIBRIUM ITERATIONS.

 TIME INCREMENT COMPLETED  1.000E-02,  FRACTION OF STEP COMPLETED  0.230    
 STEP TIME COMPLETED       0.230    ,  TOTAL TIME COMPLETED        0.230    


  INCREMENT    24 STARTS. ATTEMPT NUMBER  1, TIME INCREMENT  1.000E-02

  NUMBER OF EQUATIONS =      2693     NUMBER OF RHS =    1
  NUMBER OF FLOATING PT. OPERATIONS =  1.90E+05

     CHECK POINT   START OF SOLVER    

     CHECK POINT  END OF SOLVER       

       ELAPSED USER TIME (SEC)      =   0.0000    
       ELAPSED SYSTEM TIME (SEC)    =   0.0000    
       ELAPSED TOTAL CPU TIME (SEC) =   0.0000    
       ELAPSED WALLCLOCK TIME (SEC) =          0

               CONVERGENCE CHECKS FOR EQUILIBRIUM ITERATION     1


 AVERAGE FORCE                      0.362       TIME AVG. FORCE       0.200    
 LARGEST RESIDUAL FORCE             1.323E-02   AT NODE        742   DOF  1
   INSTANCE: INST                                                                            
 LARGEST INCREMENT OF DISP.        -9.000E-04   AT NODE          1   DOF  2
   INSTANCE: {assembly node}                                                                 
 LARGEST CORRECTION TO DISP.       -1.846E-06   AT NODE        332   DOF  2
   INSTANCE: INST                                                                            
          FORCE     EQUILIBRIUM NOT ACHIEVED WITHIN TOLERANCE.

 AVERAGE MOMENT                     6.177E-02   TIME AVG. MOMENT      3.285E-02
 LARGEST RESIDUAL MOMENT           -4.125E-04   AT NODE        741   DOF  6
   INSTANCE: INST                                                                            
 LARGEST INCREMENT OF ROTATION      1.035E-03   AT NODE        594   DOF  6
   INSTANCE: INST                                                                            
 LARGEST CORRECTION TO ROTATION     1.643E-05   AT NODE        202   DOF  6
   INSTANCE: INST                                                                            
          MOMENT    EQUILIBRIUM NOT ACHIEVED WITHIN TOLERANCE.

  NUMBER OF EQUATIONS =      2693     NUMBER OF RHS =    1
  NUMBER OF FLOATING PT. OPERATIONS =  1.90E+05

     CHECK POINT   START OF SOLVER    

     CHECK POINT  END OF SOLVER       

       ELAPSED USER TIME (SEC)      =   0.0000    
       ELAPSED SYSTEM TIME (SEC)    =   0.0000    
       ELAPSED TOTAL CPU TIME (SEC) =   0.0000    
       ELAPSED WALLCLOCK TIME (SEC) =          0
 

 ***WARNING: SOLVER PROBLEM. NUMERICAL SINGULARITY WHEN PROCESSING NODE INST.15 
             D.O.F. 1 RATIO = 56.3479E+12 .
 

 ***WARNING: SOLVER PROBLEM. NUMERICAL SINGULARITY WHEN PROCESSING NODE INST.15 
             D.O.F. 2 RATIO = 241.497E+12  .

               CONVERGENCE CHECKS FOR EQUILIBRIUM ITERATION     2


 AVERAGE FORCE                      0.377       TIME AVG. FORCE       0.200    
 LARGEST RESIDUAL FORCE             8.867E-13   AT NODE        140   DOF  2
   INSTANCE: INST                                                                            
 LARGEST INCREMENT OF DISP.        -9.000E-04   AT NODE          1   DOF  2
   INSTANCE: {assembly node}                                                                 
 LARGEST CORRECTION TO DISP.        7.951E-07   AT NODE        577   DOF  2
   INSTANCE: INST                                                                            
          THE FORCE     EQUILIBRIUM EQUATIONS HAVE CONVERGED

 AVERAGE MOMENT                     6.176E-02   TIME AVG. MOMENT      3.285E-02
 LARGEST RESIDUAL MOMENT            4.274E-15   AT NODE        139   DOF  6
   INSTANCE: INST                                                                            
 LARGEST INCREMENT OF ROTATION      1.029E-03   AT NODE        158   DOF  6
   INSTANCE: INST                                                                            
 LARGEST CORRECTION TO ROTATION    -6.245E-06   AT NODE        594   DOF  6
   INSTANCE: INST                                                                            
          THE MOMENT    EQUILIBRIUM EQUATIONS HAVE CONVERGED

 ITERATION SUMMARY FOR THE INCREMENT:   2 TOTAL ITERATIONS, OF WHICH
   0 ARE SEVERE DISCONTINUITY ITERATIONS AND  2 ARE EQUILIBRIUM ITERATIONS.

 TIME INCREMENT COMPLETED  1.000E-02,  FRACTION OF STEP COMPLETED  0.240    
 STEP TIME COMPLETED       0.240    ,  TOTAL TIME COMPLETED        0.240    


  INCREMENT    25 STARTS. ATTEMPT NUMBER  1, TIME INCREMENT  1.000E-02

  NUMBER OF EQUATIONS =      2693     NUMBER OF RHS =    1
  NUMBER OF FLOATING PT. OPERATIONS =  1.90E+05

     CHECK POINT   START OF SOLVER    

     CHECK POINT  END OF SOLVER       

       ELAPSED USER TIME (SEC)      =   0.0000    
       ELAPSED SYSTEM TIME (SEC)    =   0.0000    
       ELAPSED TOTAL CPU TIME (SEC) =   0.0000    
       ELAPSED WALLCLOCK TIME (SEC) =          0
 

 ***WARNING: SOLVER PROBLEM. NUMERICAL SINGULARITY WHEN PROCESSING NODE INST.15 
             D.O.F. 1 RATIO = 42.5476E+12 .
 

 ***WARNING: SOLVER PROBLEM. NUMERICAL SINGULARITY WHEN PROCESSING NODE INST.15 
             D.O.F. 2 RATIO = 299.103E+12  .

               CONVERGENCE CHECKS FOR EQUILIBRIUM ITERATION     1


 AVERAGE FORCE                      0.389       TIME AVG. FORCE       0.208    
 LARGEST RESIDUAL FORCE             8.485E-13   AT NODE        111   DOF  2
   INSTANCE: INST                                                                            
 LARGEST INCREMENT OF DISP.        -9.000E-04   AT NODE          1   DOF  2
   INSTANCE: {assembly node}                                                                 
 LARGEST CORRECTION TO DISP.        1.649E-06   AT NODE         17   DOF  2
   INSTANCE: INST                                                                            
          THE FORCE     EQUILIBRIUM RESPONSE WAS LINEAR IN THIS INCREMENT

 AVERAGE MOMENT                     6.374E-02   TIME AVG. MOMENT      3.409E-02
 LARGEST RESIDUAL MOMENT           -5.662E-15   AT NODE        116   DOF  6
   INSTANCE: INST                                                                            
 LARGEST INCREMENT OF ROTATION     -1.016E-03   AT NODE        352   DOF  6
   INSTANCE: INST                                                                            
 LARGEST CORRECTION TO ROTATION    -1.574E-05   AT NODE        489   DOF  6
   INSTANCE: INST                                                                            
          THE MOMENT    EQUILIBRIUM RESPONSE WAS LINEAR IN THIS INCREMENT

 ITERATION SUMMARY FOR THE INCREMENT:   1 TOTAL ITERATIONS, OF WHICH
   0 ARE SEVERE DISCONTINUITY ITERATIONS AND  1 ARE EQUILIBRIUM ITERATIONS.

 TIME INCREMENT COMPLETED  1.000E-02,  FRACTION OF STEP COMPLETED  0.250    
 STEP TIME COMPLETED       0.250    ,  TOTAL TIME COMPLETED        0.250    


  INCREMENT    26 STARTS. ATTEMPT NUMBER  1, TIME INCREMENT  1.000E-02

  NUMBER OF EQUATIONS =      2693     NUMBER OF RHS =    1
  NUMBER OF FLOATING PT. OPERATIONS =  1.90E+05

     CHECK POINT   START OF SOLVER    

     CHECK POINT  END OF SOLVER       

       ELAPSED USER TIME (SEC)      =   0.0000    
       ELAPSED SYSTEM TIME (SEC)    =   0.0000    
       ELAPSED TOTAL CPU TIME (SEC) =   0.0000    
       ELAPSED WALLCLOCK TIME (SEC) =          0

               CONVERGENCE CHECKS FOR EQUILIBRIUM ITERATION     1


 AVERAGE FORCE                      0.380       TIME AVG. FORCE       0.214    
 LARGEST RESIDUAL FORCE             1.313E-02   AT NODE        551   DOF  1
   INSTANCE: INST                                                                            
 LARGEST INCREMENT OF DISP.        -9.000E-04   AT NODE          1   DOF  2
   INSTANCE: {assembly node}                                                                 
 LARGEST CORRECTION TO DISP.        8.523E-07   AT NODE          6   DOF  2
   INSTANCE: INST                                                                            
          FORCE     EQUILIBRIUM NOT ACHIEVED WITHIN TOLERANCE.

 AVERAGE MOMENT                     6.564E-02   TIME AVG. MOMENT      3.530E-02
 LARGEST RESIDUAL MOMENT            3.300E-04   AT NODE        105   DOF  6
   INSTANCE: INST                                                                            
 LARGEST INCREMENT OF ROTATION      1.009E-03   AT NODE        594   DOF  6
   INSTANCE: INST                                                                            
 LARGEST CORRECTION TO ROTATION     8.707E-06   AT NODE        636   DOF  6
   INSTANCE: INST                                                                            
          MOMENT    EQUILIBRIUM NOT ACHIEVED WITHIN TOLERANCE.

  NUMBER OF EQUATIONS =      2693     NUMBER OF RHS =    1
  NUMBER OF FLOATING PT. OPERATIONS =  1.90E+05

     CHECK POINT   START OF SOLVER    

     CHECK POINT  END OF SOLVER       

       ELAPSED USER TIME (SEC)      =   0.0000    
       ELAPSED SYSTEM TIME (SEC)    =   0.0000    
       ELAPSED TOTAL CPU TIME (SEC) =   0.0000    
       ELAPSED WALLCLOCK TIME (SEC) =          0
 

 ***WARNING: SOLVER PROBLEM. NUMERICAL SINGULARITY WHEN PROCESSING NODE INST.15 
             D.O.F. 1 RATIO = 47.0714E+12 .
 

 ***WARNING: SOLVER PROBLEM. NUMERICAL SINGULARITY WHEN PROCESSING NODE INST.15 
             D.O.F. 2 RATIO = 191.557E+12  .

               CONVERGENCE CHECKS FOR EQUILIBRIUM ITERATION     2


 AVERAGE FORCE                      0.400       TIME AVG. FORCE       0.215    
 LARGEST RESIDUAL FORCE             9.543E-13   AT NODE        102   DOF  2
   INSTANCE: INST                                                                            
 LARGEST INCREMENT OF DISP.        -9.000E-04   AT NODE          1   DOF  2
   INSTANCE: {assembly node}                                                                 
 LARGEST CORRECTION TO DISP.       -2.317E-07   AT NODE         29   DOF  2
   INSTANCE: INST                                                                            
          THE FORCE     EQUILIBRIUM EQUATIONS HAVE CONVERGED

 AVERAGE MOMENT                     6.563E-02   TIME AVG. MOMENT      3.530E-02
 LARGEST RESIDUAL MOMENT           -6.259E-15   AT NODE        103   DOF  6
   INSTANCE: INST                                                                            
 LARGEST INCREMENT OF ROTATION      1.007E-03   AT NODE        594   DOF  6
   INSTANCE: INST                                                                            
 LARGEST CORRECTION TO ROTATION     2.740E-06   AT NODE        453   DOF  6
   INSTANCE: INST                                                                            
          THE MOMENT    EQUILIBRIUM EQUATIONS HAVE CONVERGED

 ITERATION SUMMARY FOR THE INCREMENT:   2 TOTAL ITERATIONS, OF WHICH
   0 ARE SEVERE DISCONTINUITY ITERATIONS AND  2 ARE EQUILIBRIUM ITERATIONS.

 TIME INCREMENT COMPLETED  1.000E-02,  FRACTION OF STEP COMPLETED  0.260    
 STEP TIME COMPLETED       0.260    ,  TOTAL TIME COMPLETED        0.260    


  INCREMENT    27 STARTS. ATTEMPT NUMBER  1, TIME INCREMENT  1.000E-02

  NUMBER OF EQUATIONS =      2693     NUMBER OF RHS =    1
  NUMBER OF FLOATING PT. OPERATIONS =  1.90E+05

     CHECK POINT   START OF SOLVER    

     CHECK POINT  END OF SOLVER       

       ELAPSED USER TIME (SEC)      =   0.0000    
       ELAPSED SYSTEM TIME (SEC)    =   0.0000    
       ELAPSED TOTAL CPU TIME (SEC) =   0.0000    
       ELAPSED WALLCLOCK TIME (SEC) =          0
 

 ***WARNING: SOLVER PROBLEM. NUMERICAL SINGULARITY WHEN PROCESSING NODE INST.15 
             D.O.F. 1 RATIO = 40.4984E+12 .
 

 ***WARNING: SOLVER PROBLEM. NUMERICAL SINGULARITY WHEN PROCESSING NODE INST.15 
             D.O.F. 2 RATIO = 170.541E+12  .

               CONVERGENCE CHECKS FOR EQUILIBRIUM ITERATION     1


 AVERAGE FORCE                      0.406       TIME AVG. FORCE       0.222    
 LARGEST RESIDUAL FORCE            -2.973E-03   AT NODE        310   DOF  1
   INSTANCE: INST                                                                            
 LARGEST INCREMENT OF DISP.        -9.000E-04   AT NODE          1   DOF  2
   INSTANCE: {assembly node}                                                                 
 LARGEST CORRECTION TO DISP.       -1.207E-06   AT NODE        611   DOF  2
   INSTANCE: INST                                                                            
          FORCE     EQUILIBRIUM NOT ACHIEVED WITHIN TOLERANCE.

 AVERAGE MOMENT                     6.747E-02   TIME AVG. MOMENT      3.649E-02
 LARGEST RESIDUAL MOMENT            1.234E-04   AT NODE        794   DOF  6
   INSTANCE: INST                                                                            
 LARGEST INCREMENT OF ROTATION     -9.975E-04   AT NODE        466   DOF  6
   INSTANCE: INST                                                                            
 LARGEST CORRECTION TO ROTATION    -1.017E-05   AT NODE        796   DOF  6
   INSTANCE: INST                                                                            
 ESTIMATE OF ROTATION CORRECTION   -1.508E-06
 MOMENT    EQUILIB. ACCEPTED BASED ON SMALL RESIDUAL AND ESTIMATED CORRECTION

  NUMBER OF EQUATIONS =      2693     NUMBER OF RHS =    1
  NUMBER OF FLOATING PT. OPERATIONS =  1.90E+05

     CHECK POINT   START OF SOLVER    

     CHECK POINT  END OF SOLVER       

       ELAPSED USER TIME (SEC)      =   0.0000    
       ELAPSED SYSTEM TIME (SEC)    =   0.0000    
       ELAPSED TOTAL CPU TIME (SEC) =   0.0000    
       ELAPSED WALLCLOCK TIME (SEC) =          0
 

 ***WARNING: SOLVER PROBLEM. NUMERICAL SINGULARITY WHEN PROCESSING NODE INST.15 
             D.O.F. 1 RATIO = 36.1876E+12 .
 

 ***WARNING: SOLVER PROBLEM. NUMERICAL SINGULARITY WHEN PROCESSING NODE INST.15 
             D.O.F. 2 RATIO = 231.679E+12  .

               CONVERGENCE CHECKS FOR EQUILIBRIUM ITERATION     2


 AVERAGE FORCE                      0.411       TIME AVG. FORCE       0.222    
 LARGEST RESIDUAL FORCE            -9.097E-13   AT NODE        103   DOF  2
   INSTANCE: INST                                                                            
 LARGEST INCREMENT OF DISP.        -9.000E-04   AT NODE          1   DOF  2
   INSTANCE: {assembly node}                                                                 
 LARGEST CORRECTION TO DISP.       -8.300E-08   AT NODE        837   DOF  1
   INSTANCE: INST                                                                            
          THE FORCE     EQUILIBRIUM EQUATIONS HAVE CONVERGED

 AVERAGE MOMENT                     6.747E-02   TIME AVG. MOMENT      3.649E-02
 LARGEST RESIDUAL MOMENT            5.634E-15   AT NODE        108   DOF  6
   INSTANCE: INST                                                                            
 LARGEST INCREMENT OF ROTATION     -9.968E-04   AT NODE        466   DOF  6
   INSTANCE: INST                                                                            
 LARGEST CORRECTION TO ROTATION     6.924E-07   AT NODE        199   DOF  6
   INSTANCE: INST                                                                            
          THE MOMENT    EQUILIBRIUM EQUATIONS HAVE CONVERGED

 ITERATION SUMMARY FOR THE INCREMENT:   2 TOTAL ITERATIONS, OF WHICH
   0 ARE SEVERE DISCONTINUITY ITERATIONS AND  2 ARE EQUILIBRIUM ITERATIONS.

 TIME INCREMENT COMPLETED  1.000E-02,  FRACTION OF STEP COMPLETED  0.270    
 STEP TIME COMPLETED       0.270    ,  TOTAL TIME COMPLETED        0.270    


  INCREMENT    28 STARTS. ATTEMPT NUMBER  1, TIME INCREMENT  1.000E-02

  NUMBER OF EQUATIONS =      2693     NUMBER OF RHS =    1
  NUMBER OF FLOATING PT. OPERATIONS =  1.90E+05

     CHECK POINT   START OF SOLVER    

     CHECK POINT  END OF SOLVER       

       ELAPSED USER TIME (SEC)      =   0.0000    
       ELAPSED SYSTEM TIME (SEC)    =   0.0000    
       ELAPSED TOTAL CPU TIME (SEC) =   0.0000    
       ELAPSED WALLCLOCK TIME (SEC) =          0
 

 ***WARNING: SOLVER PROBLEM. NUMERICAL SINGULARITY WHEN PROCESSING NODE INST.15 
             D.O.F. 1 RATIO = 35.0610E+12 .
 

 ***WARNING: SOLVER PROBLEM. NUMERICAL SINGULARITY WHEN PROCESSING NODE INST.15 
             D.O.F. 2 RATIO = 277.581E+12  .

               CONVERGENCE CHECKS FOR EQUILIBRIUM ITERATION     1


 AVERAGE FORCE                      0.422       TIME AVG. FORCE       0.230    
 LARGEST RESIDUAL FORCE            -1.075E-12   AT NODE        552   DOF  2
   INSTANCE: INST                                                                            
 LARGEST INCREMENT OF DISP.        -9.000E-04   AT NODE          1   DOF  2
   INSTANCE: {assembly node}                                                                 
 LARGEST CORRECTION TO DISP.       -4.151E-07   AT NODE        795   DOF  2
   INSTANCE: INST                                                                            
          THE FORCE     EQUILIBRIUM RESPONSE WAS LINEAR IN THIS INCREMENT

 AVERAGE MOMENT                     6.923E-02   TIME AVG. MOMENT      3.766E-02
 LARGEST RESIDUAL MOMENT           -5.621E-15   AT NODE        121   DOF  6
   INSTANCE: INST                                                                            
 LARGEST INCREMENT OF ROTATION      9.984E-04   AT NODE        158   DOF  6
   INSTANCE: INST                                                                            
[...]
          THE FORCE     EQUILIBRIUM EQUATIONS HAVE CONVERGED

 AVERAGE MOMENT                     8.826E-02   TIME AVG. MOMENT      6.816E-02
 LARGEST RESIDUAL MOMENT           -1.086E-05   AT NODE        756   DOF  6
   INSTANCE: INST                                                                            
 LARGEST INCREMENT OF ROTATION      1.132E-03   AT NODE         26   DOF  6
   INSTANCE: INST                                                                            
 LARGEST CORRECTION TO ROTATION    -6.351E-06   AT NODE        158   DOF  6
   INSTANCE: INST                                                                            
          THE MOMENT    EQUILIBRIUM EQUATIONS HAVE CONVERGED

 ITERATION SUMMARY FOR THE INCREMENT:   1 TOTAL ITERATIONS, OF WHICH
   0 ARE SEVERE DISCONTINUITY ITERATIONS AND  1 ARE EQUILIBRIUM ITERATIONS.

 TIME INCREMENT COMPLETED  1.000E-02,  FRACTION OF STEP COMPLETED  0.920    
 STEP TIME COMPLETED       0.920    ,  TOTAL TIME COMPLETED        0.920    


  INCREMENT    93 STARTS. ATTEMPT NUMBER  1, TIME INCREMENT  1.000E-02

  NUMBER OF EQUATIONS =      2693     NUMBER OF RHS =    1
  NUMBER OF FLOATING PT. OPERATIONS =  1.90E+05

     CHECK POINT   START OF SOLVER    

     CHECK POINT  END OF SOLVER       

       ELAPSED USER TIME (SEC)      =  0.10000    
       ELAPSED SYSTEM TIME (SEC)    =   0.0000    
       ELAPSED TOTAL CPU TIME (SEC) =  0.10000    
       ELAPSED WALLCLOCK TIME (SEC) =          0
 

 ***WARNING: SOLVER PROBLEM. NUMERICAL SINGULARITY WHEN PROCESSING NODE INST.15 
             D.O.F. 1 RATIO = 80.8330E+12 .
 

 ***WARNING: SOLVER PROBLEM. NUMERICAL SINGULARITY WHEN PROCESSING NODE INST.15 
             D.O.F. 2 RATIO = 2.47465E+15.

               CONVERGENCE CHECKS FOR EQUILIBRIUM ITERATION     1


 AVERAGE FORCE                      0.539       TIME AVG. FORCE       0.416    
 LARGEST RESIDUAL FORCE             2.494E-12   AT NODE        400   DOF  2
   INSTANCE: INST                                                                            
 LARGEST INCREMENT OF DISP.        -9.000E-04   AT NODE          1   DOF  2
   INSTANCE: {assembly node}                                                                 
 LARGEST CORRECTION TO DISP.       -2.612E-08   AT NODE        610   DOF  2
   INSTANCE: INST                                                                            
          THE FORCE     EQUILIBRIUM RESPONSE WAS LINEAR IN THIS INCREMENT

 AVERAGE MOMENT                     8.838E-02   TIME AVG. MOMENT      6.838E-02
 LARGEST RESIDUAL MOMENT           -1.846E-14   AT NODE         97   DOF  6
   INSTANCE: INST                                                                            
 LARGEST INCREMENT OF ROTATION      1.132E-03   AT NODE         26   DOF  6
   INSTANCE: INST                                                                            
 LARGEST CORRECTION TO ROTATION     2.466E-07   AT NODE        625   DOF  6
   INSTANCE: INST                                                                            
          THE MOMENT    EQUILIBRIUM RESPONSE WAS LINEAR IN THIS INCREMENT

 ITERATION SUMMARY FOR THE INCREMENT:   1 TOTAL ITERATIONS, OF WHICH
   0 ARE SEVERE DISCONTINUITY ITERATIONS AND  1 ARE EQUILIBRIUM ITERATIONS.

 TIME INCREMENT COMPLETED  1.000E-02,  FRACTION OF STEP COMPLETED  0.930    
 STEP TIME COMPLETED       0.930    ,  TOTAL TIME COMPLETED        0.930    


  INCREMENT    94 STARTS. ATTEMPT NUMBER  1, TIME INCREMENT  1.000E-02

  NUMBER OF EQUATIONS =      2693     NUMBER OF RHS =    1
  NUMBER OF FLOATING PT. OPERATIONS =  1.90E+05

     CHECK POINT   START OF SOLVER    

     CHECK POINT  END OF SOLVER       

       ELAPSED USER TIME (SEC)      =   0.0000    
       ELAPSED SYSTEM TIME (SEC)    =   0.0000    
       ELAPSED TOTAL CPU TIME (SEC) =   0.0000    
       ELAPSED WALLCLOCK TIME (SEC) =          0

               CONVERGENCE CHECKS FOR EQUILIBRIUM ITERATION     1


 AVERAGE FORCE                      0.540       TIME AVG. FORCE       0.418    
 LARGEST RESIDUAL FORCE             3.577E-12   AT NODE         93   DOF  2
   INSTANCE: INST                                                                            
 LARGEST INCREMENT OF DISP.        -9.000E-04   AT NODE          1   DOF  2
   INSTANCE: {assembly node}                                                                 
 LARGEST CORRECTION TO DISP.        7.812E-09   AT NODE        142   DOF  2
   INSTANCE: INST                                                                            
          THE FORCE     EQUILIBRIUM RESPONSE WAS LINEAR IN THIS INCREMENT

 AVERAGE MOMENT                     8.850E-02   TIME AVG. MOMENT      6.859E-02
 LARGEST RESIDUAL MOMENT           -3.006E-14   AT NODE          5   DOF  6
   INSTANCE: INST                                                                            
 LARGEST INCREMENT OF ROTATION      1.132E-03   AT NODE         26   DOF  6
   INSTANCE: INST                                                                            
 LARGEST CORRECTION TO ROTATION    -6.930E-08   AT NODE        563   DOF  6
   INSTANCE: INST                                                                            
          THE MOMENT    EQUILIBRIUM RESPONSE WAS LINEAR IN THIS INCREMENT

 ITERATION SUMMARY FOR THE INCREMENT:   1 TOTAL ITERATIONS, OF WHICH
   0 ARE SEVERE DISCONTINUITY ITERATIONS AND  1 ARE EQUILIBRIUM ITERATIONS.

 TIME INCREMENT COMPLETED  1.000E-02,  FRACTION OF STEP COMPLETED  0.940    
 STEP TIME COMPLETED       0.940    ,  TOTAL TIME COMPLETED        0.940    


  INCREMENT    95 STARTS. ATTEMPT NUMBER  1, TIME INCREMENT  1.000E-02

  NUMBER OF EQUATIONS =      2693     NUMBER OF RHS =    1
  NUMBER OF FLOATING PT. OPERATIONS =  1.90E+05

     CHECK POINT   START OF SOLVER    

     CHECK POINT  END OF SOLVER       

       ELAPSED USER TIME (SEC)      =   0.0000    
       ELAPSED SYSTEM TIME (SEC)    =  0.10000    
       ELAPSED TOTAL CPU TIME (SEC) =  0.10000    
       ELAPSED WALLCLOCK TIME (SEC) =          0

               CONVERGENCE CHECKS FOR EQUILIBRIUM ITERATION     1


 AVERAGE FORCE                      0.540       TIME AVG. FORCE       0.419    
 LARGEST RESIDUAL FORCE             4.230E-12   AT NODE        105   DOF  2
   INSTANCE: INST                                                                            
 LARGEST INCREMENT OF DISP.        -9.000E-04   AT NODE          1   DOF  2
   INSTANCE: {assembly node}                                                                 
 LARGEST CORRECTION TO DISP.       -5.724E-11   AT NODE          6   DOF  2
   INSTANCE: INST                                                                            
          THE FORCE     EQUILIBRIUM RESPONSE WAS LINEAR IN THIS INCREMENT

 AVERAGE MOMENT                     8.862E-02   TIME AVG. MOMENT      6.880E-02
 LARGEST RESIDUAL MOMENT           -1.693E-14   AT NODE          1   DOF  6
   INSTANCE: INST                                                                            
 LARGEST INCREMENT OF ROTATION     -1.132E-03   AT NODE         27   DOF  6
   INSTANCE: INST                                                                            
 LARGEST CORRECTION TO ROTATION     2.398E-10   AT NODE        579   DOF  6
   INSTANCE: INST                                                                            
          THE MOMENT    EQUILIBRIUM RESPONSE WAS LINEAR IN THIS INCREMENT

 ITERATION SUMMARY FOR THE INCREMENT:   1 TOTAL ITERATIONS, OF WHICH
   0 ARE SEVERE DISCONTINUITY ITERATIONS AND  1 ARE EQUILIBRIUM ITERATIONS.

 TIME INCREMENT COMPLETED  1.000E-02,  FRACTION OF STEP COMPLETED  0.950    
 STEP TIME COMPLETED       0.950    ,  TOTAL TIME COMPLETED        0.950    


  INCREMENT    96 STARTS. ATTEMPT NUMBER  1, TIME INCREMENT  1.000E-02

  NUMBER OF EQUATIONS =      2693     NUMBER OF RHS =    1
  NUMBER OF FLOATING PT. OPERATIONS =  1.90E+05

     CHECK POINT   START OF SOLVER    

     CHECK POINT  END OF SOLVER       

       ELAPSED USER TIME (SEC)      =   0.0000    
       ELAPSED SYSTEM TIME (SEC)    =   0.0000    
       ELAPSED TOTAL CPU TIME (SEC) =   0.0000    
       ELAPSED WALLCLOCK TIME (SEC) =          0

               CONVERGENCE CHECKS FOR EQUILIBRIUM ITERATION     1


 AVERAGE FORCE                      0.541       TIME AVG. FORCE       0.420    
 LARGEST RESIDUAL FORCE             3.754E-12   AT NODE        556   DOF  2
   INSTANCE: INST                                                                            
 LARGEST INCREMENT OF DISP.        -9.000E-04   AT NODE          1   DOF  2
   INSTANCE: {assembly node}                                                                 
 LARGEST CORRECTION TO DISP.       -2.737E-11   AT NODE        819   DOF  2
   INSTANCE: INST                                                                            
          THE FORCE     EQUILIBRIUM RESPONSE WAS LINEAR IN THIS INCREMENT

 AVERAGE MOMENT                     8.874E-02   TIME AVG. MOMENT      6.901E-02
 LARGEST RESIDUAL MOMENT            2.137E-14   AT NODE        116   DOF  6
   INSTANCE: INST                                                                            
 LARGEST INCREMENT OF ROTATION      1.132E-03   AT NODE         26   DOF  6
   INSTANCE: INST                                                                            
 LARGEST CORRECTION TO ROTATION     1.176E-10   AT NODE        773   DOF  6
   INSTANCE: INST                                                                            
          THE MOMENT    EQUILIBRIUM RESPONSE WAS LINEAR IN THIS INCREMENT

 ITERATION SUMMARY FOR THE INCREMENT:   1 TOTAL ITERATIONS, OF WHICH
   0 ARE SEVERE DISCONTINUITY ITERATIONS AND  1 ARE EQUILIBRIUM ITERATIONS.

 TIME INCREMENT COMPLETED  1.000E-02,  FRACTION OF STEP COMPLETED  0.960    
 STEP TIME COMPLETED       0.960    ,  TOTAL TIME COMPLETED        0.960    


  INCREMENT    97 STARTS. ATTEMPT NUMBER  1, TIME INCREMENT  1.000E-02

  NUMBER OF EQUATIONS =      2693     NUMBER OF RHS =    1
  NUMBER OF FLOATING PT. OPERATIONS =  1.90E+05

     CHECK POINT   START OF SOLVER    

     CHECK POINT  END OF SOLVER       

       ELAPSED USER TIME (SEC)      =   0.0000    
       ELAPSED SYSTEM TIME (SEC)    =   0.0000    
       ELAPSED TOTAL CPU TIME (SEC) =   0.0000    
       ELAPSED WALLCLOCK TIME (SEC) =          0

               CONVERGENCE CHECKS FOR EQUILIBRIUM ITERATION     1


 AVERAGE FORCE                      0.542       TIME AVG. FORCE       0.421    
 LARGEST RESIDUAL FORCE             3.612E-12   AT NODE         90   DOF  2
   INSTANCE: INST                                                                            
 LARGEST INCREMENT OF DISP.        -9.000E-04   AT NODE          1   DOF  2
   INSTANCE: {assembly node}                                                                 
 LARGEST CORRECTION TO DISP.       -3.122E-11   AT NODE         25   DOF  2
   INSTANCE: INST                                                                            
          THE FORCE     EQUILIBRIUM RESPONSE WAS LINEAR IN THIS INCREMENT

 AVERAGE MOMENT                     8.886E-02   TIME AVG. MOMENT      6.921E-02
 LARGEST RESIDUAL MOMENT            2.398E-14   AT NODE        105   DOF  6
   INSTANCE: INST                                                                            
 LARGEST INCREMENT OF ROTATION     -1.132E-03   AT NODE         27   DOF  6
   INSTANCE: INST                                                                            
 LARGEST CORRECTION TO ROTATION     2.067E-10   AT NODE        836   DOF  6
   INSTANCE: INST                                                                            
          THE MOMENT    EQUILIBRIUM RESPONSE WAS LINEAR IN THIS INCREMENT

 ITERATION SUMMARY FOR THE INCREMENT:   1 TOTAL ITERATIONS, OF WHICH
   0 ARE SEVERE DISCONTINUITY ITERATIONS AND  1 ARE EQUILIBRIUM ITERATIONS.

 TIME INCREMENT COMPLETED  1.000E-02,  FRACTION OF STEP COMPLETED  0.970    
 STEP TIME COMPLETED       0.970    ,  TOTAL TIME COMPLETED        0.970    


  INCREMENT    98 STARTS. ATTEMPT NUMBER  1, TIME INCREMENT  1.000E-02

  NUMBER OF EQUATIONS =      2693     NUMBER OF RHS =    1
  NUMBER OF FLOATING PT. OPERATIONS =  1.90E+05

     CHECK POINT   START OF SOLVER    

     CHECK POINT  END OF SOLVER       

       ELAPSED USER TIME (SEC)      =   0.0000    
       ELAPSED SYSTEM TIME (SEC)    =   0.0000    
       ELAPSED TOTAL CPU TIME (SEC) =   0.0000    
       ELAPSED WALLCLOCK TIME (SEC) =          0

               CONVERGENCE CHECKS FOR EQUILIBRIUM ITERATION     1


 AVERAGE FORCE                      0.535       TIME AVG. FORCE       0.423    
 LARGEST RESIDUAL FORCE            -5.409E-05   AT NODE        361   DOF  1
   INSTANCE: INST                                                                            
 LARGEST INCREMENT OF DISP.        -9.000E-04   AT NODE          1   DOF  2
   INSTANCE: {assembly node}                                                                 
 LARGEST CORRECTION TO DISP.       -1.202E-08   AT NODE        585   DOF  2
   INSTANCE: INST                                                                            
          THE FORCE     EQUILIBRIUM EQUATIONS HAVE CONVERGED

 AVERAGE MOMENT                     8.898E-02   TIME AVG. MOMENT      6.941E-02
 LARGEST RESIDUAL MOMENT            1.213E-06   AT NODE        476   DOF  6
   INSTANCE: INST                                                                            
 LARGEST INCREMENT OF ROTATION     -1.132E-03   AT NODE        352   DOF  6
   INSTANCE: INST                                                                            
 LARGEST CORRECTION TO ROTATION    -7.144E-08   AT NODE        361   DOF  6
   INSTANCE: INST                                                                            
          THE MOMENT    EQUILIBRIUM EQUATIONS HAVE CONVERGED

 ITERATION SUMMARY FOR THE INCREMENT:   1 TOTAL ITERATIONS, OF WHICH
   0 ARE SEVERE DISCONTINUITY ITERATIONS AND  1 ARE EQUILIBRIUM ITERATIONS.

 TIME INCREMENT COMPLETED  1.000E-02,  FRACTION OF STEP COMPLETED  0.980    
 STEP TIME COMPLETED       0.980    ,  TOTAL TIME COMPLETED        0.980    


  INCREMENT    99 STARTS. ATTEMPT NUMBER  1, TIME INCREMENT  1.000E-02

  NUMBER OF EQUATIONS =      2693     NUMBER OF RHS =    1
  NUMBER OF FLOATING PT. OPERATIONS =  1.90E+05

     CHECK POINT   START OF SOLVER    

     CHECK POINT  END OF SOLVER       

       ELAPSED USER TIME (SEC)      =   0.0000    
       ELAPSED SYSTEM TIME (SEC)    =   0.0000    
       ELAPSED TOTAL CPU TIME (SEC) =   0.0000    
       ELAPSED WALLCLOCK TIME (SEC) =          0
 

 ***WARNING: SOLVER PROBLEM. NUMERICAL SINGULARITY WHEN PROCESSING NODE INST.15 
             D.O.F. 1 RATIO = 1.67212E+15.
 

 ***WARNING: SOLVER PROBLEM. NUMERICAL SINGULARITY WHEN PROCESSING NODE INST.15 
             D.O.F. 2 RATIO = 2.11550E+15.

               CONVERGENCE CHECKS FOR EQUILIBRIUM ITERATION     1


 AVERAGE FORCE                      0.543       TIME AVG. FORCE       0.424    
 LARGEST RESIDUAL FORCE            -3.318E-12   AT NODE        104   DOF  2
   INSTANCE: INST                                                                            
 LARGEST INCREMENT OF DISP.        -9.000E-04   AT NODE          1   DOF  2
   INSTANCE: {assembly node}                                                                 
 LARGEST CORRECTION TO DISP.        2.761E-06   AT NODE        823   DOF  1
   INSTANCE: INST                                                                            
          THE FORCE     EQUILIBRIUM RESPONSE WAS LINEAR IN THIS INCREMENT

 AVERAGE MOMENT                     8.910E-02   TIME AVG. MOMENT      6.961E-02
 LARGEST RESIDUAL MOMENT           -1.954E-14   AT NODE        112   DOF  6
   INSTANCE: INST                                                                            
 LARGEST INCREMENT OF ROTATION      1.138E-03   AT NODE        594   DOF  6
   INSTANCE: INST                                                                            
 LARGEST CORRECTION TO ROTATION    -8.694E-06   AT NODE        144   DOF  6
   INSTANCE: INST                                                                            
          THE MOMENT    EQUILIBRIUM RESPONSE WAS LINEAR IN THIS INCREMENT

 ITERATION SUMMARY FOR THE INCREMENT:   1 TOTAL ITERATIONS, OF WHICH
   0 ARE SEVERE DISCONTINUITY ITERATIONS AND  1 ARE EQUILIBRIUM ITERATIONS.

 TIME INCREMENT COMPLETED  1.000E-02,  FRACTION OF STEP COMPLETED  0.990    
 STEP TIME COMPLETED       0.990    ,  TOTAL TIME COMPLETED        0.990    


  INCREMENT   100 STARTS. ATTEMPT NUMBER  1, TIME INCREMENT  1.000E-02

  NUMBER OF EQUATIONS =      2693     NUMBER OF RHS =    1
  NUMBER OF FLOATING PT. OPERATIONS =  1.90E+05

     CHECK POINT   START OF SOLVER    

     CHECK POINT  END OF SOLVER       

       ELAPSED USER TIME (SEC)      =   0.0000    
       ELAPSED SYSTEM TIME (SEC)    =   0.0000    
       ELAPSED TOTAL CPU TIME (SEC) =   0.0000    
       ELAPSED WALLCLOCK TIME (SEC) =          0

               CONVERGENCE CHECKS FOR EQUILIBRIUM ITERATION     1


 AVERAGE FORCE                      0.544       TIME AVG. FORCE       0.425    
 LARGEST RESIDUAL FORCE             4.324E-12   AT NODE        103   DOF  2
   INSTANCE: INST                                                                            
 LARGEST INCREMENT OF DISP.        -9.000E-04   AT NODE          1   DOF  2
   INSTANCE: {assembly node}                                                                 
 LARGEST CORRECTION TO DISP.        4.112E-07   AT NODE        840   DOF  1
   INSTANCE: INST                                                                            
          THE FORCE     EQUILIBRIUM RESPONSE WAS LINEAR IN THIS INCREMENT

 AVERAGE MOMENT                     8.922E-02   TIME AVG. MOMENT      6.981E-02
 LARGEST RESIDUAL MOMENT            2.090E-14   AT NODE        107   DOF  6
   INSTANCE: INST                                                                            
 LARGEST INCREMENT OF ROTATION      1.139E-03   AT NODE         26   DOF  6
   INSTANCE: INST                                                                            
 LARGEST CORRECTION TO ROTATION     1.248E-06   AT NODE        338   DOF  6
   INSTANCE: INST                                                                            
          THE MOMENT    EQUILIBRIUM RESPONSE WAS LINEAR IN THIS INCREMENT

 ITERATION SUMMARY FOR THE INCREMENT:   1 TOTAL ITERATIONS, OF WHICH
   0 ARE SEVERE DISCONTINUITY ITERATIONS AND  1 ARE EQUILIBRIUM ITERATIONS.

 TIME INCREMENT COMPLETED  1.000E-02,  FRACTION OF STEP COMPLETED   1.00    
 STEP TIME COMPLETED        1.00    ,  TOTAL TIME COMPLETED         1.00    


          THE ANALYSIS HAS BEEN COMPLETED



     ANALYSIS SUMMARY:
     TOTAL OF        100  INCREMENTS
                       0  CUTBACKS IN AUTOMATIC INCREMENTATION
                     116  ITERATIONS INCLUDING CONTACT ITERATIONS IF PRESENT
                     116  PASSES THROUGH THE EQUATION SOLVER OF WHICH 
                      42  INVOLVE MATRIX DECOMPOSITION, INCLUDING
                       0  DECOMPOSITION(S) OF THE MASS MATRIX
                       1  REORDERING OF EQUATIONS TO MINIMIZE WAVEFRONT
                       0  ADDITIONAL RESIDUAL EVALUATIONS FOR LINE SEARCHES
                       0  ADDITIONAL OPERATOR EVALUATIONS FOR LINE SEARCHES
                       1  WARNING MESSAGES DURING USER INPUT PROCESSING
                      84  WARNING MESSAGES DURING ANALYSIS
                      84  ANALYSIS WARNINGS ARE NUMERICAL PROBLEM MESSAGES
                       0  ANALYSIS WARNINGS ARE NEGATIVE EIGENVALUE MESSAGES
                       0  ERROR MESSAGES



     JOB TIME SUMMARY
       USER TIME (SEC)      =   5.4000    
       SYSTEM TIME (SEC)    =  0.90000    
       TOTAL CPU TIME (SEC) =   6.3000    
       WALLCLOCK TIME (SEC) =         11
