*Heading
** Job name: bilinear-test Model name: test_model
** Generated by: Abaqus/CAE 2018
*Preprint, echo=NO, model=NO, history=NO, contact=NO
**
** PARTS
**
*Part, name=HEX_BEAM
*Node
      1,           0.,          -1.
      2,           0.,  -1.32000005
      3,           0.,         -1.5
      4,   0.27712813, -0.839999974
      5,  -0.27712813, -0.839999974
      6, -0.588897288, -0.660000026
      7, -0.866025388,         -0.5
      8, -0.866025388, -0.180000007
      9, -0.866025388,  0.180000007
     10, -0.866025388,          0.5
     11, -0.588897288,  0.660000026
     12,  -0.27712813,  0.839999974
     13,           0.,           1.
     14,           0.,   1.32000005
     15,           0.,          1.5
     16,  0.588897288, -0.660000026
     17,  -1.14315355, -0.660000026
     18,  -1.14315355,  0.660000026
     19,   0.27712813,  0.839999974
     20,  0.588897288,  0.660000026
** ... 880 like lines cut
*Element, type=B21
 1,  1, 31
 2, 31, 32
 3, 32, 33
 4, 33, 34
 5, 34, 35
 6, 35, 36
 7, 36, 37
 8, 37, 38
 9, 38, 39
10, 39, 40
11, 40, 41
12, 41, 42
13, 42, 43
14, 43, 44
15, 44, 45
16, 45, 46
17, 46, 47
18, 47, 48
19, 48, 49
20, 49, 50
** ... 880 like lines cut
*Nset, nset=UNIT_CELL, generate
   1,  900,    1
*Elset, elset=UNIT_CELL, generate
   1,  900,    1
*Nset, nset=JOINTS
   1,   2,   4,   5,   6,   7,   8,   9,  10,  11,  12,  13,  14,  16,  17,  18
  19,  20,  21,  22,  23,  24,  25,  29,  31,  32,  33,  34,  35,  36,  37,  38
  39,  40,  41,  42,  43,  44,  45,  46,  47,  48,  49,  50,  51,  52,  53,  54
  55,  56,  57,  58,  59,  60,  61,  79,  80,  81,  82,  83,  84,  85,  86,  87
  88,  89,  90,  91,  92,  93,  94,  95,  96,  97,  98,  99, 100, 101, 102, 103
 104, 105, 106, 107, 108, 109, 110, 111, 112, 113, 114, 115, 116, 117, 118, 119
 120, 121, 122, 123, 124, 125, 126, 127, 128, 129, 130, 131, 132, 133, 134, 135
 136, 137, 138, 139, 140, 176, 177, 178, 179, 180, 181, 182, 183, 184, 185, 186
 187, 188, 189, 190, 191, 192, 193, 194, 195, 196, 197, 198, 199, 200, 201, 202
 203, 204, 205, 206, 207, 208, 209, 210, 211, 212, 213, 214, 215, 216, 217, 218
 219, 220, 221, 222, 223, 224, 225, 226, 227, 228, 229, 230, 231, 232, 233, 234
 235, 236, 237, 273, 274, 275, 276, 277, 278, 279, 280, 281, 282, 283, 284, 285
 286, 287, 288, 289, 290, 291, 292, 293, 294, 295, 296, 297, 298, 299, 300, 301
 302, 303, 304, 305, 306, 307, 308, 309, 310, 311, 312, 313, 314, 315, 316, 317
 318, 319, 320, 321, 322, 323, 324, 325, 326, 327, 328, 329, 330, 331, 332, 333
 334, 370, 371, 372, 373, 374, 375, 376, 377, 378, 379, 380, 381, 382, 383, 384
 385, 386, 387, 388, 389, 390, 391, 392, 393, 394, 395, 396, 397, 398, 399, 400
 401, 402, 403, 404, 405, 406, 407, 408, 409, 410, 411, 412, 413, 414, 415, 416
 417, 418, 419, 420, 421, 422, 423, 424, 425, 426, 427, 428, 429, 430, 431, 484
 485, 486, 487, 488, 489, 490, 491, 492, 493, 494, 495, 496, 497, 498, 499, 500
** ... 17 like lines cut
*Elset, elset=JOINTS
   1,   2,   3,   4,   5,   6,   7,   8,   9,  10,  11,  12,  13,  14,  15,  16
  17,  18,  19,  20,  21,  22,  23,  24,  25,  26,  27,  28,  29,  30,  31,  32
  51,  52,  53,  54,  55,  56,  57,  58,  59,  60,  61,  62,  63,  64,  65,  66
  67,  68,  69,  70,  71,  72,  73,  74,  75,  76,  77,  78,  79,  80,  81,  82
  83,  84,  85,  86,  87,  88,  89,  90,  91,  92,  93,  94,  95,  96,  97,  98
  99, 100, 101, 102, 103, 104, 105, 106, 107, 108, 109, 110, 111, 112, 113, 114
 151, 152, 153, 154, 155, 156, 157, 158, 159, 160, 161, 162, 163, 164, 165, 166
 167, 168, 169, 170, 171, 172, 173, 174, 175, 176, 177, 178, 179, 180, 181, 182
 183, 184, 185, 186, 187, 188, 189, 190, 191, 192, 193, 194, 195, 196, 197, 198
 199, 200, 201, 202, 203, 204, 205, 206, 207, 208, 209, 210, 211, 212, 213, 214
 251, 252, 253, 254, 255, 256, 257, 258, 259, 260, 261, 262, 263, 264, 265, 266
 267, 268, 269, 270, 271, 272, 273, 274, 275, 276, 277, 278, 279, 280, 281, 282
 283, 284, 285, 286, 287, 288, 289, 290, 291, 292, 293, 294, 295, 296, 297, 298
 299, 300, 301, 302, 303, 304, 305, 306, 307, 308, 309, 310, 311, 312, 313, 314
 351, 352, 353, 354, 355, 356, 357, 358, 359, 360, 361, 362, 363, 364, 365, 366
 367, 368, 369, 370, 371, 372, 373, 374, 375, 376, 377, 378, 379, 380, 381, 382
 383, 384, 385, 386, 387, 388, 389, 390, 391, 392, 393, 394, 395, 396, 397, 398
 399, 400, 401, 402, 403, 404, 405, 406, 407, 408, 409, 410, 411, 412, 413, 414
 469, 470, 471, 472, 473, 474, 475, 476, 477, 478, 479, 480, 481, 482, 483, 484
 485, 486, 487, 488, 489, 490, 491, 492, 493, 494, 495, 496, 497, 498, 499, 500
** ... 16 like lines cut
*Nset, nset=BEAMS
   2,   3,   4,   5,   6,   8,   9,  11,  12,  14,  15,  16,  17,  18,  19,  20
  22,  23,  25,  26,  27,  28,  29,  30,  62,  63,  64,  65,  66,  67,  68,  69
  70,  71,  72,  73,  74,  75,  76,  77,  78, 141, 142, 143, 144, 145, 146, 147
 148, 149, 150, 151, 152, 153, 154, 155, 156, 157, 158, 159, 160, 161, 162, 163
 164, 165, 166, 167, 168, 169, 170, 171, 172, 173, 174, 175, 238, 239, 240, 241
 242, 243, 244, 245, 246, 247, 248, 249, 250, 251, 252, 253, 254, 255, 256, 257
 258, 259, 260, 261, 262, 263, 264, 265, 266, 267, 268, 269, 270, 271, 272, 335
 336, 337, 338, 339, 340, 341, 342, 343, 344, 345, 346, 347, 348, 349, 350, 351
 352, 353, 354, 355, 356, 357, 358, 359, 360, 361, 362, 363, 364, 365, 366, 367
 368, 369, 432, 433, 434, 435, 436, 437, 438, 439, 440, 441, 442, 443, 444, 445
 446, 447, 448, 449, 450, 451, 452, 453, 454, 455, 456, 457, 458, 459, 460, 461
 462, 463, 464, 465, 466, 467, 468, 469, 470, 471, 472, 473, 474, 475, 476, 477
 478, 479, 480, 481, 482, 483, 577, 578, 579, 580, 581, 582, 583, 584, 585, 586
 587, 588, 589, 590, 591, 592, 593, 594, 595, 596, 597, 598, 599, 600, 601, 602
 603, 604, 605, 606, 607, 608, 609, 610, 611, 674, 675, 676, 677, 678, 679, 680
 681, 682, 683, 684, 685, 686, 687, 688, 689, 690, 691, 692, 693, 694, 695, 696
 697, 698, 699, 700, 701, 702, 703, 704, 705, 706, 707, 708, 771, 772, 773, 774
 775, 776, 777, 778, 779, 780, 781, 782, 783, 784, 785, 786, 787, 819, 820, 821
 822, 823, 824, 825, 826, 827, 828, 829, 830, 831, 832, 833, 834, 835, 836, 837
 838, 839, 840, 841, 842, 843, 844, 845, 846, 847, 848, 849, 850, 851, 852, 884
 885, 886, 887, 888, 889, 890, 891, 892, 893, 894, 895, 896, 897, 898, 899, 900
*Elset, elset=BEAMS
  33,  34,  35,  36,  37,  38,  39,  40,  41,  42,  43,  44,  45,  46,  47,  48
  49,  50, 115, 116, 117, 118, 119, 120, 121, 122, 123, 124, 125, 126, 127, 128
 129, 130, 131, 132, 133, 134, 135, 136, 137, 138, 139, 140, 141, 142, 143, 144
 145, 146, 147, 148, 149, 150, 215, 216, 217, 218, 219, 220, 221, 222, 223, 224
 225, 226, 227, 228, 229, 230, 231, 232, 233, 234, 235, 236, 237, 238, 239, 240
 241, 242, 243, 244, 245, 246, 247, 248, 249, 250, 315, 316, 317, 318, 319, 320
 321, 322, 323, 324, 325, 326, 327, 328, 329, 330, 331, 332, 333, 334, 335, 336
 337, 338, 339, 340, 341, 342, 343, 344, 345, 346, 347, 348, 349, 350, 415, 416
 417, 418, 419, 420, 421, 422, 423, 424, 425, 426, 427, 428, 429, 430, 431, 432
 433, 434, 435, 436, 437, 438, 439, 440, 441, 442, 443, 444, 445, 446, 447, 448
 449, 450, 451, 452, 453, 454, 455, 456, 457, 458, 459, 460, 461, 462, 463, 464
 465, 466, 467, 468, 565, 566, 567, 568, 569, 570, 571, 572, 573, 574, 575, 576
 577, 578, 579, 580, 581, 582, 583, 584, 585, 586, 587, 588, 589, 590, 591, 592
 593, 594, 595, 596, 597, 598, 599, 600, 665, 666, 667, 668, 669, 670, 671, 672
 673, 674, 675, 676, 677, 678, 679, 680, 681, 682, 683, 684, 685, 686, 687, 688
 689, 690, 691, 692, 693, 694, 695, 696, 697, 698, 699, 700, 765, 766, 767, 768
 769, 770, 771, 772, 773, 774, 775, 776, 777, 778, 779, 780, 781, 782, 815, 816
 817, 818, 819, 820, 821, 822, 823, 824, 825, 826, 827, 828, 829, 830, 831, 832
 833, 834, 835, 836, 837, 838, 839, 840, 841, 842, 843, 844, 845, 846, 847, 848
 849, 850, 883, 884, 885, 886, 887, 888, 889, 890, 891, 892, 893, 894, 895, 896
 897, 898, 899, 900
** Section: END_SECTION  Profile: END_PROFILE
*Beam Section, elset=JOINTS, material=ALUMINIUM, temperature=GRADIENTS, section=RECT
1., 0.071908
0.,0.,-1.
** Section: MID_SECTION  Profile: MID_PROFILE
*Beam Section, elset=BEAMS, material=ALUMINIUM, temperature=GRADIENTS, section=RECT
1., 0.0388303
0.,0.,-1.
*End Part
**  
**
** ASSEMBLY
**
*Assembly, name=Assembly
**  
*Instance, name=INST, part=HEX_BEAM
*End Instance
**  
*Node
      1,           2.,          -2.,           0.
*Nset, nset=REF
 1,
*Nset, nset=n1, instance=INST
 15,
*Nset, nset=n2, instance=INST
 30,
*Nset, nset=n3, instance=INST
 26,
*Nset, nset=n4, instance=INST
 3,
*Nset, nset=n5, instance=INST
 27,
*Nset, nset=n6, instance=INST
 28,
** Constraint: Constraint-1
*Equation
2
n4, 1, 1.
n1, 1, -1.
** Constraint: Constraint-2
*Equation
3
n5, 1, 1.
n2, 1, -1.
REF, 1, 1.
** Constraint: Constraint-3
*Equation
3
n6, 1, 1.
n3, 1, -1.
REF, 1, 1.
** Constraint: Constraint-4
*Equation
3
n4, 2, 1.
n1, 2, -1.
REF, 2, 1.
** Constraint: Constraint-5
*Equation
3
n5, 2, 1.
n2, 2, -1.
REF, 2, 0.5
** Constraint: Constraint-6
*Equation
3
n6, 2, 1.
n3, 2, -1.
REF, 2, -0.5
** Constraint: Constraint-7
*Equation
2
n4, 6, 1.
n1, 6, -1.
** Constraint: Constraint-8
*Equation
2
n5, 6, 1.
n2, 6, -1.
** Constraint: Constraint-9
*Equation
2
n6, 6, 1.
n3, 6, -1.
*End Assembly
** 
** MATERIALS
** 
*Material, name=ALUMINIUM
*Elastic
70000., 0.3
*Plastic
130.,        0.
140., 0.0136054
150., 0.0272109
160., 0.0408163
170., 0.0544218
180., 0.0680272
190., 0.0816327
200., 0.0952381
210.,  0.108844
220.,  0.122449
230.,  0.136054
240.,   0.14966
250.,  0.163265
260.,  0.176871
270.,  0.190476
** ----------------------------------------------------------------
** 
** STEP: Step-1
** 
*Step, name=Step-1, nlgeom=NO, inc=1000
*Static
0.01, 1., 0.01, 0.01
** 
** BOUNDARY CONDITIONS
** 
** Name: BC-1 Type: Displacement/Rotation
*Boundary
REF, 2, 2, -0.09
** 
** OUTPUT REQUESTS
** 
*Restart, write, frequency=0
** 
** FIELD OUTPUT: F-Output-1
** 
*Output, field, variable=PRESELECT
** 
** HISTORY OUTPUT: H-Output-1
** 
*Output, history, variable=PRESELECT
*End Step
