1

   Abaqus 3DEXPERIENCE R2018x                                  Date 28-Jan-2022   Time 11:11:15
   For use by UNIVERSITY COLLEGE LONDON under license from Dassault Systemes or its subsidiary.

                                                                                 
                                                                                 
 STEP    1     INCREMENT     1     STEP TIME    0.00    


                        S T E P       1     S T A T I C   A N A L Y S I S


                                                                                          

     AUTOMATIC TIME CONTROL WITH -
          A SUGGESTED INITIAL TIME INCREMENT OF                1.000E-02
          AND A TOTAL TIME PERIOD OF                            1.00    
          THE MINIMUM TIME INCREMENT ALLOWED IS                1.000E-02
          THE MAXIMUM TIME INCREMENT ALLOWED IS                1.000E-02

     LINEAR EQUATION SOLVER TYPE         DIRECT SPARSE

 CONVERGENCE TOLERANCE PARAMETERS FOR FORCE    
     CRITERION FOR RESIDUAL FORCE     FOR A NONLINEAR PROBLEM          5.000E-03
     CRITERION FOR DISP.    CORRECTION IN A NONLINEAR PROBLEM          1.000E-02
     INITIAL VALUE OF TIME AVERAGE FORCE                               1.000E-02
     AVERAGE FORCE     IS TIME AVERAGE FORCE    
     ALTERNATE CRIT. FOR RESIDUAL FORCE     FOR A NONLINEAR PROBLEM    2.000E-02
     CRITERION FOR ZERO FORCE     RELATIVE TO TIME AVRG. FORCE         1.000E-05
     CRITERION FOR RESIDUAL FORCE     WHEN THERE IS ZERO FLUX          1.000E-05
     CRITERION FOR DISP.    CORRECTION WHEN THERE IS ZERO FLUX         1.000E-03
     CRITERION FOR RESIDUAL FORCE     FOR A LINEAR INCREMENT           1.000E-08
     FIELD CONVERSION RATIO                                             1.00    
     CRITERION FOR ZERO FORCE     REL. TO TIME AVRG. MAX. FORCE        1.000E-05
     CRITERION FOR ZERO DISP.    RELATIVE TO CHARACTERISTIC LENGTH     1.000E-08

 CONVERGENCE TOLERANCE PARAMETERS FOR MOMENT   
     CRITERION FOR RESIDUAL MOMENT    FOR A NONLINEAR PROBLEM          5.000E-03
     CRITERION FOR ROTATION CORRECTION IN A NONLINEAR PROBLEM          1.000E-02
     INITIAL VALUE OF TIME AVERAGE MOMENT                              1.000E-02
     AVERAGE MOMENT    IS TIME AVERAGE MOMENT   
     ALTERNATE CRIT. FOR RESIDUAL MOMENT    FOR A NONLINEAR PROBLEM    2.000E-02
     CRITERION FOR ZERO MOMENT    RELATIVE TO TIME AVRG. MOMENT        1.000E-05
     CRITERION FOR RESIDUAL MOMENT    WHEN THERE IS ZERO FLUX          1.000E-05
     CRITERION FOR ROTATION CORRECTION WHEN THERE IS ZERO FLUX         1.000E-03
     CRITERION FOR RESIDUAL MOMENT    FOR A LINEAR INCREMENT           1.000E-08
     FIELD CONVERSION RATIO                                             1.00    
     CRITERION FOR ZERO MOMENT    REL. TO TIME AVRG. MAX. MOMENT       1.000E-05

     VOLUMETRIC STRAIN COMPATIBILITY TOLERANCE FOR HYBRID SOLIDS       1.000E-05
     AXIAL STRAIN COMPATIBILITY TOLERANCE FOR HYBRID BEAMS             1.000E-05
     TRANS. SHEAR STRAIN COMPATIBILITY TOLERANCE FOR HYBRID BEAMS      1.000E-05
     SOFT CONTACT CONSTRAINT COMPATIBILITY TOLERANCE FOR P>P0          5.000E-03
     SOFT CONTACT CONSTRAINT COMPATIBILITY TOLERANCE FOR P=0.0         0.100    
     CONTACT FORCE ERROR TOLERANCE FOR CONVERT SDI=YES                 1.00    
     DISPLACEMENT COMPATIBILITY TOLERANCE FOR DCOUP ELEMENTS           1.000E-05
     ROTATION COMPATIBILITY TOLERANCE FOR DCOUP ELEMENTS               1.000E-05

 EQUILIBRIUM WILL BE CHECKED FOR SEVERE DISCONTINUITY ITERATIONS

 TIME INCREMENTATION CONTROL PARAMETERS:
     FIRST EQUILIBRIUM ITERATION FOR CONSECUTIVE DIVERGENCE CHECK              4
     EQUILIBRIUM ITERATION AT WHICH LOG. CONVERGENCE RATE CHECK BEGINS         8
     EQUILIBRIUM ITERATION AFTER WHICH ALTERNATE RESIDUAL IS USED              9
     MAXIMUM EQUILIBRIUM ITERATIONS ALLOWED                                   16
     EQUILIBRIUM ITERATION COUNT FOR CUT-BACK IN NEXT INCREMENT               10
     MAXIMUM EQUILIB. ITERS IN TWO INCREMENTS FOR TIME INCREMENT INCREASE      4
     MAXIMUM ITERATIONS FOR SEVERE DISCONTINUITIES                            50
     MAXIMUM ATTEMPTS ALLOWED IN AN INCREMENT                                  5
     MAXIMUM DISCON. ITERS IN TWO INCREMENTS FOR TIME INCREMENT INCREASE      50
     MAXIMUM CONTACT AUGMENTATIONS FOR *SURFACE BEHAVIOR,AUGMENTED LAGRANGE   50
     CUT-BACK FACTOR AFTER DIVERGENCE                                 0.2500    
     CUT-BACK FACTOR FOR TOO SLOW CONVERGENCE                         0.5000    
     CUT-BACK FACTOR AFTER TOO MANY EQUILIBRIUM ITERATIONS            0.7500    
     CUT-BACK FACTOR AFTER TOO MANY SEVERE DISCONTINUITY ITERATIONS   0.2500    
     CUT-BACK FACTOR AFTER PROBLEMS IN ELEMENT ASSEMBLY               0.2500    
     INCREASE FACTOR AFTER TWO INCREMENTS THAT CONVERGE QUICKLY        1.500    
     MAX. TIME INCREMENT INCREASE FACTOR ALLOWED                       1.500    
     MAX. TIME INCREMENT INCREASE FACTOR ALLOWED (DYNAMICS)            1.250    
     MAX. TIME INCREMENT INCREASE FACTOR ALLOWED (DIFFUSION)           2.000    
     MINIMUM TIME INCREMENT RATIO FOR EXTRAPOLATION TO OCCUR          0.1000    
     MAX. RATIO OF TIME INCREMENT TO STABILITY LIMIT                   1.000    
     FRACTION OF STABILITY LIMIT FOR NEW TIME INCREMENT               0.9500    
     TIME INCREMENT INCREASE FACTOR BEFORE A TIME POINT                1.000    
     GLOBAL STABILIZATION CONTROL IS NOT USED

          PRINT OF INCREMENT NUMBER, TIME, ETC., EVERY    1  INCREMENTS

     THE MAXIMUM NUMBER OF INCREMENTS IN THIS STEP IS                    1000

          LARGE DISPLACEMENT THEORY WILL BE USED

     LINEAR EXTRAPOLATION WILL BE USED

     CHARACTERISTIC ELEMENT LENGTH     1.000E-02

     DETAILS REGARDING ACTUAL SOLUTION WAVEFRONT REQUESTED

     DETAILED OUTPUT OF DIAGNOSTICS TO DATABASE REQUESTED

     PRINT OF INCREMENT NUMBER, TIME, ETC., TO THE MESSAGE FILE EVERY     1  INCREMENTS

     COLLECTING MODEL CONSTRAINT INFORMATION FOR OVERCONSTRAINT CHECKS

     COLLECTING STEP CONSTRAINT INFORMATION FOR OVERCONSTRAINT CHECKS


  INCREMENT     1 STARTS. ATTEMPT NUMBER  1, TIME INCREMENT  1.000E-02

  NUMBER OF EQUATIONS =      2693     NUMBER OF RHS =    1
  NUMBER OF FLOATING PT. OPERATIONS =  1.90E+05

     CHECK POINT   START OF SOLVER    

     CHECK POINT  END OF SOLVER       

       ELAPSED USER TIME (SEC)      =   0.0000    
       ELAPSED SYSTEM TIME (SEC)    =   0.0000    
       ELAPSED TOTAL CPU TIME (SEC) =   0.0000    
       ELAPSED WALLCLOCK TIME (SEC) =          0
 

 ***WARNING: SOLVER PROBLEM. NUMERICAL SINGULARITY WHEN PROCESSING NODE INST.15 
             D.O.F. 1 RATIO = 33.3268E+12 .
 

 ***WARNING: SOLVER PROBLEM. NUMERICAL SINGULARITY WHEN PROCESSING NODE INST.15 
             D.O.F. 2 RATIO = 257.273E+12  .

               CONVERGENCE CHECKS FOR EQUILIBRIUM ITERATION     1


 AVERAGE FORCE                      8.136E-03   TIME AVG. FORCE       8.136E-03
 LARGEST RESIDUAL FORCE            -2.495E-03   AT NODE          1   DOF  1
   INSTANCE:                                                                                 
 LARGEST INCREMENT OF DISP.        -9.000E-04   AT NODE          1   DOF  2
   INSTANCE: {assembly node}                                                                 
 LARGEST CORRECTION TO DISP.       -9.000E-04   AT NODE          1   DOF  2
   INSTANCE: {assembly node}                                                                 
          FORCE     EQUILIBRIUM NOT ACHIEVED WITHIN TOLERANCE.

 AVERAGE MOMENT                     1.747E-03   TIME AVG. MOMENT      1.747E-03
 LARGEST RESIDUAL MOMENT            1.655E-08   AT NODE         26   DOF  6
   INSTANCE: INST                                                                            
 LARGEST INCREMENT OF ROTATION      1.023E-03   AT NODE        158   DOF  6
   INSTANCE: INST                                                                            
 LARGEST CORRECTION TO ROTATION     1.023E-03   AT NODE        158   DOF  6
   INSTANCE: INST                                                                            
          ROTATION CORRECTION TOO LARGE COMPARED TO ROTATION INCREMENT

  NUMBER OF EQUATIONS =      2693     NUMBER OF RHS =    1
  NUMBER OF FLOATING PT. OPERATIONS =  1.90E+05

     CHECK POINT   START OF SOLVER    

     CHECK POINT  END OF SOLVER       

       ELAPSED USER TIME (SEC)      =   0.0000    
       ELAPSED SYSTEM TIME (SEC)    =   0.0000    
       ELAPSED TOTAL CPU TIME (SEC) =   0.0000    
       ELAPSED WALLCLOCK TIME (SEC) =          0
 

 ***WARNING: SOLVER PROBLEM. NUMERICAL SINGULARITY WHEN PROCESSING NODE INST.15 
             D.O.F. 1 RATIO = 117.383E+12  .
 

 ***WARNING: SOLVER PROBLEM. NUMERICAL SINGULARITY WHEN PROCESSING NODE INST.15 
             D.O.F. 2 RATIO = 248.857E+12  .

               CONVERGENCE CHECKS FOR EQUILIBRIUM ITERATION     2


 AVERAGE FORCE                      8.063E-03   TIME AVG. FORCE       8.063E-03
 LARGEST RESIDUAL FORCE             3.577E-10   AT NODE         37   DOF  2
   INSTANCE: INST                                                                            
 LARGEST INCREMENT OF DISP.        -9.000E-04   AT NODE          1   DOF  2
   INSTANCE: {assembly node}                                                                 
 LARGEST CORRECTION TO DISP.       -6.837E-07   AT NODE         26   DOF  1
   INSTANCE: INST                                                                            
          THE FORCE     EQUILIBRIUM EQUATIONS HAVE CONVERGED

 AVERAGE MOMENT                     1.746E-03   TIME AVG. MOMENT      1.746E-03
 LARGEST RESIDUAL MOMENT           -5.445E-11   AT NODE         26   DOF  6
   INSTANCE: INST                                                                            
 LARGEST INCREMENT OF ROTATION      1.023E-03   AT NODE        594   DOF  6
   INSTANCE: INST                                                                            
 LARGEST CORRECTION TO ROTATION     1.345E-07   AT NODE        897   DOF  6
   INSTANCE: INST                                                                            
          THE MOMENT    EQUILIBRIUM EQUATIONS HAVE CONVERGED

 ITERATION SUMMARY FOR THE INCREMENT:   2 TOTAL ITERATIONS, OF WHICH
   0 ARE SEVERE DISCONTINUITY ITERATIONS AND  2 ARE EQUILIBRIUM ITERATIONS.

 TIME INCREMENT COMPLETED  1.000E-02,  FRACTION OF STEP COMPLETED  1.000E-02
 STEP TIME COMPLETED       1.000E-02,  TOTAL TIME COMPLETED        1.000E-02


  INCREMENT     2 STARTS. ATTEMPT NUMBER  1, TIME INCREMENT  1.000E-02

  NUMBER OF EQUATIONS =      2693     NUMBER OF RHS =    1
  NUMBER OF FLOATING PT. OPERATIONS =  1.90E+05

     CHECK POINT   START OF SOLVER    

     CHECK POINT  END OF SOLVER       

       ELAPSED USER TIME (SEC)      =   0.0000    
       ELAPSED SYSTEM TIME (SEC)    =   0.0000    
       ELAPSED TOTAL CPU TIME (SEC) =   0.0000    
       ELAPSED WALLCLOCK TIME (SEC) =          0
 

 ***WARNING: SOLVER PROBLEM. NUMERICAL SINGULARITY WHEN PROCESSING NODE INST.15 
             D.O.F. 1 RATIO = 107.576E+12  .
 

 ***WARNING: SOLVER PROBLEM. NUMERICAL SINGULARITY WHEN PROCESSING NODE INST.15 
             D.O.F. 2 RATIO = 294.190E+12  .

               CONVERGENCE CHECKS FOR EQUILIBRIUM ITERATION     1


 AVERAGE FORCE                      3.223E-02   TIME AVG. FORCE       2.015E-02
 LARGEST RESIDUAL FORCE             5.680E-10   AT NODE          1   DOF  1
   INSTANCE:                                                                                 
 LARGEST INCREMENT OF DISP.        -9.000E-04   AT NODE          1   DOF  2
   INSTANCE: {assembly node}                                                                 
 LARGEST CORRECTION TO DISP.        1.737E-06   AT NODE         28   DOF  1
   INSTANCE: INST                                                                            
          THE FORCE     EQUILIBRIUM EQUATIONS HAVE CONVERGED

 AVERAGE MOMENT                     5.291E-03   TIME AVG. MOMENT      3.519E-03
 LARGEST RESIDUAL MOMENT            2.172E-10   AT NODE         30   DOF  6
   INSTANCE: INST                                                                            
 LARGEST INCREMENT OF ROTATION     -1.022E-03   AT NODE        466   DOF  6
   INSTANCE: INST                                                                            
 LARGEST CORRECTION TO ROTATION    -2.689E-07   AT NODE        784   DOF  6
   INSTANCE: INST                                                                            
          THE MOMENT    EQUILIBRIUM EQUATIONS HAVE CONVERGED

 ITERATION SUMMARY FOR THE INCREMENT:   1 TOTAL ITERATIONS, OF WHICH
   0 ARE SEVERE DISCONTINUITY ITERATIONS AND  1 ARE EQUILIBRIUM ITERATIONS.

 TIME INCREMENT COMPLETED  1.000E-02,  FRACTION OF STEP COMPLETED  2.000E-02
 STEP TIME COMPLETED       2.000E-02,  TOTAL TIME COMPLETED        2.000E-02


  INCREMENT     3 STARTS. ATTEMPT NUMBER  1, TIME INCREMENT  1.000E-02

  NUMBER OF EQUATIONS =      2693     NUMBER OF RHS =    1
  NUMBER OF FLOATING PT. OPERATIONS =  1.90E+05

     CHECK POINT   START OF SOLVER    

     CHECK POINT  END OF SOLVER       

       ELAPSED USER TIME (SEC)      =   0.0000    
       ELAPSED SYSTEM TIME (SEC)    =   0.0000    
       ELAPSED TOTAL CPU TIME (SEC) =   0.0000    
       ELAPSED WALLCLOCK TIME (SEC) =          0
 

 ***WARNING: SOLVER PROBLEM. NUMERICAL SINGULARITY WHEN PROCESSING NODE INST.15 
             D.O.F. 1 RATIO = 227.215E+12  .
 

 ***WARNING: SOLVER PROBLEM. NUMERICAL SINGULARITY WHEN PROCESSING NODE INST.15 
             D.O.F. 2 RATIO = 125.714E+12  .

               CONVERGENCE CHECKS FOR EQUILIBRIUM ITERATION     1


 AVERAGE FORCE                      4.832E-02   TIME AVG. FORCE       2.954E-02
 LARGEST RESIDUAL FORCE             4.473E-10   AT NODE         13   DOF  2
   INSTANCE: INST                                                                            
 LARGEST INCREMENT OF DISP.        -9.000E-04   AT NODE          1   DOF  2
   INSTANCE: {assembly node}                                                                 
 LARGEST CORRECTION TO DISP.       -1.201E-06   AT NODE          1   DOF  1
   INSTANCE: {assembly node}                                                                 
          THE FORCE     EQUILIBRIUM EQUATIONS HAVE CONVERGED

 AVERAGE MOMENT                     7.935E-03   TIME AVG. MOMENT      4.991E-03
 LARGEST RESIDUAL MOMENT           -3.244E-10   AT NODE         26   DOF  6
   INSTANCE: INST                                                                            
 LARGEST INCREMENT OF ROTATION      1.022E-03   AT NODE        158   DOF  6
   INSTANCE: INST                                                                            
 LARGEST CORRECTION TO ROTATION    -2.688E-07   AT NODE        849   DOF  6
   INSTANCE: INST                                                                            
          THE MOMENT    EQUILIBRIUM EQUATIONS HAVE CONVERGED

 ITERATION SUMMARY FOR THE INCREMENT:   1 TOTAL ITERATIONS, OF WHICH
   0 ARE SEVERE DISCONTINUITY ITERATIONS AND  1 ARE EQUILIBRIUM ITERATIONS.

 TIME INCREMENT COMPLETED  1.000E-02,  FRACTION OF STEP COMPLETED  3.000E-02
 STEP TIME COMPLETED       3.000E-02,  TOTAL TIME COMPLETED        3.000E-02


  INCREMENT     4 STARTS. ATTEMPT NUMBER  1, TIME INCREMENT  1.000E-02

  NUMBER OF EQUATIONS =      2693     NUMBER OF RHS =    1
  NUMBER OF FLOATING PT. OPERATIONS =  1.90E+05

     CHECK POINT   START OF SOLVER    

     CHECK POINT  END OF SOLVER       

       ELAPSED USER TIME (SEC)      =   0.0000    
       ELAPSED SYSTEM TIME (SEC)    =   0.0000    
       ELAPSED TOTAL CPU TIME (SEC) =   0.0000    
       ELAPSED WALLCLOCK TIME (SEC) =          0
 

 ***WARNING: SOLVER PROBLEM. NUMERICAL SINGULARITY WHEN PROCESSING NODE INST.15 
             D.O.F. 1 RATIO = 186.168E+12  .
 

 ***WARNING: SOLVER PROBLEM. NUMERICAL SINGULARITY WHEN PROCESSING NODE INST.15 
             D.O.F. 2 RATIO = 1.70721E+15.

               CONVERGENCE CHECKS FOR EQUILIBRIUM ITERATION     1


 AVERAGE FORCE                      6.439E-02   TIME AVG. FORCE       3.825E-02
 LARGEST RESIDUAL FORCE            -5.546E-10   AT NODE          1   DOF  2
   INSTANCE: INST                                                                            
 LARGEST INCREMENT OF DISP.        -9.000E-04   AT NODE          1   DOF  2
   INSTANCE: {assembly node}                                                                 
 LARGEST CORRECTION TO DISP.       -1.200E-06   AT NODE          1   DOF  1
   INSTANCE: {assembly node}                                                                 
          THE FORCE     EQUILIBRIUM EQUATIONS HAVE CONVERGED

 AVERAGE MOMENT                     1.058E-02   TIME AVG. MOMENT      6.387E-03
 LARGEST RESIDUAL MOMENT           -4.313E-10   AT NODE         26   DOF  6
   INSTANCE: INST                                                                            
 LARGEST INCREMENT OF ROTATION     -1.022E-03   AT NODE        466   DOF  6
   INSTANCE: INST                                                                            
 LARGEST CORRECTION TO ROTATION     2.684E-07   AT NODE        897   DOF  6
   INSTANCE: INST                                                                            
          THE MOMENT    EQUILIBRIUM EQUATIONS HAVE CONVERGED

 ITERATION SUMMARY FOR THE INCREMENT:   1 TOTAL ITERATIONS, OF WHICH
   0 ARE SEVERE DISCONTINUITY ITERATIONS AND  1 ARE EQUILIBRIUM ITERATIONS.

 TIME INCREMENT COMPLETED  1.000E-02,  FRACTION OF STEP COMPLETED  4.000E-02
 STEP TIME COMPLETED       4.000E-02,  TOTAL TIME COMPLETED        4.000E-02


  INCREMENT     5 STARTS. ATTEMPT NUMBER  1, TIME INCREMENT  1.000E-02

  NUMBER OF EQUATIONS =      2693     NUMBER OF RHS =    1
  NUMBER OF FLOATING PT. OPERATIONS =  1.90E+05

     CHECK POINT   START OF SOLVER    

     CHECK POINT  END OF SOLVER       

       ELAPSED USER TIME (SEC)      =   0.0000    
       ELAPSED SYSTEM TIME (SEC)    =   0.0000    
       ELAPSED TOTAL CPU TIME (SEC) =   0.0000    
       ELAPSED WALLCLOCK TIME (SEC) =          0
 

 ***WARNING: SOLVER PROBLEM. NUMERICAL SINGULARITY WHEN PROCESSING NODE INST.15 
             D.O.F. 1 RATIO = 49.5359E+12 .
 

 ***WARNING: SOLVER PROBLEM. NUMERICAL SINGULARITY WHEN PROCESSING NODE INST.15 
             D.O.F. 2 RATIO = 1.34446E+15.

               CONVERGENCE CHECKS FOR EQUILIBRIUM ITERATION     1


 AVERAGE FORCE                      8.044E-02   TIME AVG. FORCE       4.669E-02
 LARGEST RESIDUAL FORCE            -6.706E-10   AT NODE         29   DOF  2
   INSTANCE: INST                                                                            
 LARGEST INCREMENT OF DISP.        -9.000E-04   AT NODE          1   DOF  2
   INSTANCE: {assembly node}                                                                 
 LARGEST CORRECTION TO DISP.       -1.199E-06   AT NODE          1   DOF  1
   INSTANCE: {assembly node}                                                                 
          THE FORCE     EQUILIBRIUM EQUATIONS HAVE CONVERGED

 AVERAGE MOMENT                     1.322E-02   TIME AVG. MOMENT      7.754E-03
 LARGEST RESIDUAL MOMENT            5.383E-10   AT NODE        466   DOF  6
   INSTANCE: INST                                                                            
 LARGEST INCREMENT OF ROTATION     -1.022E-03   AT NODE        466   DOF  6
   INSTANCE: INST                                                                            
 LARGEST CORRECTION TO ROTATION    -2.682E-07   AT NODE        850   DOF  6
   INSTANCE: INST                                                                            
          THE MOMENT    EQUILIBRIUM EQUATIONS HAVE CONVERGED

 ITERATION SUMMARY FOR THE INCREMENT:   1 TOTAL ITERATIONS, OF WHICH
   0 ARE SEVERE DISCONTINUITY ITERATIONS AND  1 ARE EQUILIBRIUM ITERATIONS.

 TIME INCREMENT COMPLETED  1.000E-02,  FRACTION OF STEP COMPLETED  5.000E-02
 STEP TIME COMPLETED       5.000E-02,  TOTAL TIME COMPLETED        5.000E-02


  INCREMENT     6 STARTS. ATTEMPT NUMBER  1, TIME INCREMENT  1.000E-02

  NUMBER OF EQUATIONS =      2693     NUMBER OF RHS =    1
  NUMBER OF FLOATING PT. OPERATIONS =  1.90E+05

     CHECK POINT   START OF SOLVER    

     CHECK POINT  END OF SOLVER       

       ELAPSED USER TIME (SEC)      =   0.0000    
       ELAPSED SYSTEM TIME (SEC)    =   0.0000    
       ELAPSED TOTAL CPU TIME (SEC) =   0.0000    
       ELAPSED WALLCLOCK TIME (SEC) =          0
 

 ***WARNING: SOLVER PROBLEM. NUMERICAL SINGULARITY WHEN PROCESSING NODE INST.15 
             D.O.F. 1 RATIO = 176.280E+12  .
 

 ***WARNING: SOLVER PROBLEM. NUMERICAL SINGULARITY WHEN PROCESSING NODE INST.15 
             D.O.F. 2 RATIO = 463.209E+12  .

               CONVERGENCE CHECKS FOR EQUILIBRIUM ITERATION     1


 AVERAGE FORCE                      9.647E-02   TIME AVG. FORCE       5.498E-02
 LARGEST RESIDUAL FORCE            -6.923E-10   AT NODE         21   DOF  2
   INSTANCE: INST                                                                            
 LARGEST INCREMENT OF DISP.        -9.000E-04   AT NODE          1   DOF  2
   INSTANCE: {assembly node}                                                                 
 LARGEST CORRECTION TO DISP.       -1.631E-06   AT NODE         26   DOF  1
   INSTANCE: INST                                                                            
          THE FORCE     EQUILIBRIUM EQUATIONS HAVE CONVERGED

 AVERAGE MOMENT                     1.586E-02   TIME AVG. MOMENT      9.105E-03
 LARGEST RESIDUAL MOMENT            6.451E-10   AT NODE        466   DOF  6
   INSTANCE: INST                                                                            
 LARGEST INCREMENT OF ROTATION      1.021E-03   AT NODE        158   DOF  6
   INSTANCE: INST                                                                            
 LARGEST CORRECTION TO ROTATION     2.679E-07   AT NODE        833   DOF  6
   INSTANCE: INST                                                                            
          THE MOMENT    EQUILIBRIUM EQUATIONS HAVE CONVERGED

 ITERATION SUMMARY FOR THE INCREMENT:   1 TOTAL ITERATIONS, OF WHICH
   0 ARE SEVERE DISCONTINUITY ITERATIONS AND  1 ARE EQUILIBRIUM ITERATIONS.

 TIME INCREMENT COMPLETED  1.000E-02,  FRACTION OF STEP COMPLETED  6.000E-02
 STEP TIME COMPLETED       6.000E-02,  TOTAL TIME COMPLETED        6.000E-02


  INCREMENT     7 STARTS. ATTEMPT NUMBER  1, TIME INCREMENT  1.000E-02

  NUMBER OF EQUATIONS =      2693     NUMBER OF RHS =    1
  NUMBER OF FLOATING PT. OPERATIONS =  1.90E+05

     CHECK POINT   START OF SOLVER    

     CHECK POINT  END OF SOLVER       

       ELAPSED USER TIME (SEC)      =   0.0000    
       ELAPSED SYSTEM TIME (SEC)    =   0.0000    
       ELAPSED TOTAL CPU TIME (SEC) =   0.0000    
       ELAPSED WALLCLOCK TIME (SEC) =          0
 

 ***WARNING: SOLVER PROBLEM. NUMERICAL SINGULARITY WHEN PROCESSING NODE INST.15 
             D.O.F. 1 RATIO = 63.3766E+12 .
 

 ***WARNING: SOLVER PROBLEM. NUMERICAL SINGULARITY WHEN PROCESSING NODE INST.15 
             D.O.F. 2 RATIO = 2.71064E+15.

               CONVERGENCE CHECKS FOR EQUILIBRIUM ITERATION     1


 AVERAGE FORCE                      0.112       TIME AVG. FORCE       6.320E-02
 LARGEST RESIDUAL FORCE            -1.001E-09   AT NODE          1   DOF  1
   INSTANCE:                                                                                 
 LARGEST INCREMENT OF DISP.        -9.000E-04   AT NODE          1   DOF  2
   INSTANCE: {assembly node}                                                                 
 LARGEST CORRECTION TO DISP.       -1.197E-06   AT NODE          1   DOF  1
   INSTANCE: {assembly node}                                                                 
          THE FORCE     EQUILIBRIUM EQUATIONS HAVE CONVERGED

 AVERAGE MOMENT                     1.850E-02   TIME AVG. MOMENT      1.045E-02
 LARGEST RESIDUAL MOMENT            7.518E-10   AT NODE        466   DOF  6
   INSTANCE: INST                                                                            
 LARGEST INCREMENT OF ROTATION      1.021E-03   AT NODE        594   DOF  6
   INSTANCE: INST                                                                            
 LARGEST CORRECTION TO ROTATION    -2.676E-07   AT NODE        786   DOF  6
   INSTANCE: INST                                                                            
          THE MOMENT    EQUILIBRIUM EQUATIONS HAVE CONVERGED

 ITERATION SUMMARY FOR THE INCREMENT:   1 TOTAL ITERATIONS, OF WHICH
   0 ARE SEVERE DISCONTINUITY ITERATIONS AND  1 ARE EQUILIBRIUM ITERATIONS.

 TIME INCREMENT COMPLETED  1.000E-02,  FRACTION OF STEP COMPLETED  7.000E-02
 STEP TIME COMPLETED       7.000E-02,  TOTAL TIME COMPLETED        7.000E-02


  INCREMENT     8 STARTS. ATTEMPT NUMBER  1, TIME INCREMENT  1.000E-02

  NUMBER OF EQUATIONS =      2693     NUMBER OF RHS =    1
  NUMBER OF FLOATING PT. OPERATIONS =  1.90E+05

     CHECK POINT   START OF SOLVER    

     CHECK POINT  END OF SOLVER       

       ELAPSED USER TIME (SEC)      =   0.0000    
       ELAPSED SYSTEM TIME (SEC)    =   0.0000    
       ELAPSED TOTAL CPU TIME (SEC) =   0.0000    
       ELAPSED WALLCLOCK TIME (SEC) =          0
 

 ***WARNING: SOLVER PROBLEM. NUMERICAL SINGULARITY WHEN PROCESSING NODE INST.15 
             D.O.F. 1 RATIO = 73.6650E+12 .
 

 ***WARNING: SOLVER PROBLEM. NUMERICAL SINGULARITY WHEN PROCESSING NODE INST.15 
             D.O.F. 2 RATIO = 163.351E+12  .

               CONVERGENCE CHECKS FOR EQUILIBRIUM ITERATION     1


 AVERAGE FORCE                      0.128       TIME AVG. FORCE       7.136E-02
 LARGEST RESIDUAL FORCE            -1.143E-09   AT NODE          1   DOF  1
   INSTANCE:                                                                                 
 LARGEST INCREMENT OF DISP.        -9.000E-04   AT NODE          1   DOF  2
   INSTANCE: {assembly node}                                                                 
 LARGEST CORRECTION TO DISP.       -1.196E-06   AT NODE          1   DOF  1
   INSTANCE: {assembly node}                                                                 
          THE FORCE     EQUILIBRIUM EQUATIONS HAVE CONVERGED

 AVERAGE MOMENT                     2.114E-02   TIME AVG. MOMENT      1.178E-02
 LARGEST RESIDUAL MOMENT            8.585E-10   AT NODE        352   DOF  6
   INSTANCE: INST                                                                            
 LARGEST INCREMENT OF ROTATION     -1.021E-03   AT NODE        466   DOF  6
   INSTANCE: INST                                                                            
 LARGEST CORRECTION TO ROTATION    -2.673E-07   AT NODE        786   DOF  6
   INSTANCE: INST                                                                            
          THE MOMENT    EQUILIBRIUM EQUATIONS HAVE CONVERGED

 ITERATION SUMMARY FOR THE INCREMENT:   1 TOTAL ITERATIONS, OF WHICH
   0 ARE SEVERE DISCONTINUITY ITERATIONS AND  1 ARE EQUILIBRIUM ITERATIONS.

 TIME INCREMENT COMPLETED  1.000E-02,  FRACTION OF STEP COMPLETED  8.000E-02
 STEP TIME COMPLETED       8.000E-02,  TOTAL TIME COMPLETED        8.000E-02


  INCREMENT     9 STARTS. ATTEMPT NUMBER  1, TIME INCREMENT  1.000E-02

  NUMBER OF EQUATIONS =      2693     NUMBER OF RHS =    1
  NUMBER OF FLOATING PT. OPERATIONS =  1.90E+05

     CHECK POINT   START OF SOLVER    

     CHECK POINT  END OF SOLVER       

       ELAPSED USER TIME (SEC)      =   0.0000    
       ELAPSED SYSTEM TIME (SEC)    =   0.0000    
       ELAPSED TOTAL CPU TIME (SEC) =   0.0000    
       ELAPSED WALLCLOCK TIME (SEC) =          0
 

 ***WARNING: SOLVER PROBLEM. NUMERICAL SINGULARITY WHEN PROCESSING NODE INST.15 
             D.O.F. 1 RATIO = 147.729E+12  .
 

 ***WARNING: SOLVER PROBLEM. NUMERICAL SINGULARITY WHEN PROCESSING NODE INST.15 
             D.O.F. 2 RATIO = 241.609E+12  .

               CONVERGENCE CHECKS FOR EQUILIBRIUM ITERATION     1


 AVERAGE FORCE                      0.144       TIME AVG. FORCE       7.948E-02
 LARGEST RESIDUAL FORCE            -1.417E-09   AT NODE          1   DOF  1
   INSTANCE:                                                                                 
 LARGEST INCREMENT OF DISP.        -9.000E-04   AT NODE          1   DOF  2
   INSTANCE: {assembly node}                                                                 
 LARGEST CORRECTION TO DISP.       -1.195E-06   AT NODE          1   DOF  1
   INSTANCE: {assembly node}                                                                 
          THE FORCE     EQUILIBRIUM EQUATIONS HAVE CONVERGED

 AVERAGE MOMENT                     2.378E-02   TIME AVG. MOMENT      1.312E-02
 LARGEST RESIDUAL MOMENT            9.648E-10   AT NODE        466   DOF  6
   INSTANCE: INST                                                                            
 LARGEST INCREMENT OF ROTATION      1.021E-03   AT NODE        158   DOF  6
   INSTANCE: INST                                                                            
 LARGEST CORRECTION TO ROTATION     2.671E-07   AT NODE        465   DOF  6
   INSTANCE: INST                                                                            
          THE MOMENT    EQUILIBRIUM EQUATIONS HAVE CONVERGED

 ITERATION SUMMARY FOR THE INCREMENT:   1 TOTAL ITERATIONS, OF WHICH
   0 ARE SEVERE DISCONTINUITY ITERATIONS AND  1 ARE EQUILIBRIUM ITERATIONS.

 TIME INCREMENT COMPLETED  1.000E-02,  FRACTION OF STEP COMPLETED  9.000E-02
 STEP TIME COMPLETED       9.000E-02,  TOTAL TIME COMPLETED        9.000E-02


  INCREMENT    10 STARTS. ATTEMPT NUMBER  1, TIME INCREMENT  1.000E-02

  NUMBER OF EQUATIONS =      2693     NUMBER OF RHS =    1
  NUMBER OF FLOATING PT. OPERATIONS =  1.90E+05

     CHECK POINT   START OF SOLVER    

     CHECK POINT  END OF SOLVER       

       ELAPSED USER TIME (SEC)      =   0.0000    
       ELAPSED SYSTEM TIME (SEC)    =   0.0000    
       ELAPSED TOTAL CPU TIME (SEC) =   0.0000    
       ELAPSED WALLCLOCK TIME (SEC) =          0
 

 ***WARNING: SOLVER PROBLEM. NUMERICAL SINGULARITY WHEN PROCESSING NODE INST.15 
             D.O.F. 1 RATIO = 60.5949E+12 .
 

 ***WARNING: SOLVER PROBLEM. NUMERICAL SINGULARITY WHEN PROCESSING NODE INST.15 
             D.O.F. 2 RATIO = 168.996E+12  .

               CONVERGENCE CHECKS FOR EQUILIBRIUM ITERATION     1


 AVERAGE FORCE                      0.160       TIME AVG. FORCE       8.757E-02
 LARGEST RESIDUAL FORCE            -1.765E-09   AT NODE          1   DOF  1
   INSTANCE:                                                                                 
 LARGEST INCREMENT OF DISP.        -9.000E-04   AT NODE          1   DOF  2
   INSTANCE: {assembly node}                                                                 
 LARGEST CORRECTION TO DISP.       -1.193E-06   AT NODE          1   DOF  1
   INSTANCE: {assembly node}                                                                 
          THE FORCE     EQUILIBRIUM EQUATIONS HAVE CONVERGED

 AVERAGE MOMENT                     2.641E-02   TIME AVG. MOMENT      1.445E-02
 LARGEST RESIDUAL MOMENT            1.071E-09   AT NODE         30   DOF  6
   INSTANCE: INST                                                                            
 LARGEST INCREMENT OF ROTATION      1.020E-03   AT NODE        158   DOF  6
   INSTANCE: INST                                                                            
 LARGEST CORRECTION TO ROTATION    -2.668E-07   AT NODE        594   DOF  6
   INSTANCE: INST                                                                            
          THE MOMENT    EQUILIBRIUM EQUATIONS HAVE CONVERGED

 ITERATION SUMMARY FOR THE INCREMENT:   1 TOTAL ITERATIONS, OF WHICH
   0 ARE SEVERE DISCONTINUITY ITERATIONS AND  1 ARE EQUILIBRIUM ITERATIONS.

 TIME INCREMENT COMPLETED  1.000E-02,  FRACTION OF STEP COMPLETED  0.100    
 STEP TIME COMPLETED       0.100    ,  TOTAL TIME COMPLETED        0.100    


  INCREMENT    11 STARTS. ATTEMPT NUMBER  1, TIME INCREMENT  1.000E-02

  NUMBER OF EQUATIONS =      2693     NUMBER OF RHS =    1
  NUMBER OF FLOATING PT. OPERATIONS =  1.90E+05

     CHECK POINT   START OF SOLVER    

     CHECK POINT  END OF SOLVER       

       ELAPSED USER TIME (SEC)      =   0.0000    
       ELAPSED SYSTEM TIME (SEC)    =   0.0000    
       ELAPSED TOTAL CPU TIME (SEC) =   0.0000    
       ELAPSED WALLCLOCK TIME (SEC) =          0
 

 ***WARNING: SOLVER PROBLEM. NUMERICAL SINGULARITY WHEN PROCESSING NODE INST.15 
             D.O.F. 1 RATIO = 48.3458E+12 .
 

 ***WARNING: SOLVER PROBLEM. NUMERICAL SINGULARITY WHEN PROCESSING NODE INST.15 
             D.O.F. 2 RATIO = 376.285E+12  .

               CONVERGENCE CHECKS FOR EQUILIBRIUM ITERATION     1


 AVERAGE FORCE                      0.176       TIME AVG. FORCE       9.564E-02
 LARGEST RESIDUAL FORCE            -2.155E-09   AT NODE          1   DOF  1
   INSTANCE:                                                                                 
 LARGEST INCREMENT OF DISP.        -9.000E-04   AT NODE          1   DOF  2
   INSTANCE: {assembly node}                                                                 
 LARGEST CORRECTION TO DISP.       -1.192E-06   AT NODE          1   DOF  1
   INSTANCE: {assembly node}                                                                 
          THE FORCE     EQUILIBRIUM EQUATIONS HAVE CONVERGED

 AVERAGE MOMENT                     2.905E-02   TIME AVG. MOMENT      1.577E-02
 LARGEST RESIDUAL MOMENT            1.178E-09   AT NODE        466   DOF  6
   INSTANCE: INST                                                                            
 LARGEST INCREMENT OF ROTATION     -1.020E-03   AT NODE        466   DOF  6
   INSTANCE: INST                                                                            
 LARGEST CORRECTION TO ROTATION    -2.665E-07   AT NODE        158   DOF  6
   INSTANCE: INST                                                                            
          THE MOMENT    EQUILIBRIUM EQUATIONS HAVE CONVERGED

 ITERATION SUMMARY FOR THE INCREMENT:   1 TOTAL ITERATIONS, OF WHICH
   0 ARE SEVERE DISCONTINUITY ITERATIONS AND  1 ARE EQUILIBRIUM ITERATIONS.

 TIME INCREMENT COMPLETED  1.000E-02,  FRACTION OF STEP COMPLETED  0.110    
 STEP TIME COMPLETED       0.110    ,  TOTAL TIME COMPLETED        0.110    


  INCREMENT    12 STARTS. ATTEMPT NUMBER  1, TIME INCREMENT  1.000E-02

  NUMBER OF EQUATIONS =      2693     NUMBER OF RHS =    1
  NUMBER OF FLOATING PT. OPERATIONS =  1.90E+05

     CHECK POINT   START OF SOLVER    

     CHECK POINT  END OF SOLVER       

       ELAPSED USER TIME (SEC)      =   0.0000    
       ELAPSED SYSTEM TIME (SEC)    =   0.0000    
       ELAPSED TOTAL CPU TIME (SEC) =   0.0000    
       ELAPSED WALLCLOCK TIME (SEC) =          0
 

 ***WARNING: SOLVER PROBLEM. NUMERICAL SINGULARITY WHEN PROCESSING NODE INST.15 
             D.O.F. 1 RATIO = 27.4583E+12 .
 

 ***WARNING: SOLVER PROBLEM. NUMERICAL SINGULARITY WHEN PROCESSING NODE INST.15 
             D.O.F. 2 RATIO = 437.532E+12  .

               CONVERGENCE CHECKS FOR EQUILIBRIUM ITERATION     1


 AVERAGE FORCE                      0.192       TIME AVG. FORCE       0.104    
 LARGEST RESIDUAL FORCE            -2.273E-09   AT NODE          1   DOF  1
   INSTANCE:                                                                                 
 LARGEST INCREMENT OF DISP.        -9.000E-04   AT NODE          1   DOF  2
   INSTANCE: {assembly node}                                                                 
 LARGEST CORRECTION TO DISP.       -1.191E-06   AT NODE          1   DOF  1
   INSTANCE: {assembly node}                                                                 
          THE FORCE     EQUILIBRIUM EQUATIONS HAVE CONVERGED

 AVERAGE MOMENT                     3.168E-02   TIME AVG. MOMENT      1.710E-02
 LARGEST RESIDUAL MOMENT            1.284E-09   AT NODE         30   DOF  6
   INSTANCE: INST                                                                            
 LARGEST INCREMENT OF ROTATION      1.020E-03   AT NODE        594   DOF  6
   INSTANCE: INST                                                                            
 LARGEST CORRECTION TO ROTATION     2.663E-07   AT NODE        352   DOF  6
   INSTANCE: INST                                                                            
          THE MOMENT    EQUILIBRIUM EQUATIONS HAVE CONVERGED

 ITERATION SUMMARY FOR THE INCREMENT:   1 TOTAL ITERATIONS, OF WHICH
   0 ARE SEVERE DISCONTINUITY ITERATIONS AND  1 ARE EQUILIBRIUM ITERATIONS.

 TIME INCREMENT COMPLETED  1.000E-02,  FRACTION OF STEP COMPLETED  0.120    
 STEP TIME COMPLETED       0.120    ,  TOTAL TIME COMPLETED        0.120    


  INCREMENT    13 STARTS. ATTEMPT NUMBER  1, TIME INCREMENT  1.000E-02

  NUMBER OF EQUATIONS =      2693     NUMBER OF RHS =    1
  NUMBER OF FLOATING PT. OPERATIONS =  1.90E+05

     CHECK POINT   START OF SOLVER    

     CHECK POINT  END OF SOLVER       

       ELAPSED USER TIME (SEC)      =   0.0000    
       ELAPSED SYSTEM TIME (SEC)    =   0.0000    
       ELAPSED TOTAL CPU TIME (SEC) =   0.0000    
       ELAPSED WALLCLOCK TIME (SEC) =          0
 

 ***WARNING: SOLVER PROBLEM. NUMERICAL SINGULARITY WHEN PROCESSING NODE INST.15 
             D.O.F. 1 RATIO = 154.366E+12  .
 

 ***WARNING: SOLVER PROBLEM. NUMERICAL SINGULARITY WHEN PROCESSING NODE INST.15 
             D.O.F. 2 RATIO = 10.1880E+15 .

               CONVERGENCE CHECKS FOR EQUILIBRIUM ITERATION     1


 AVERAGE FORCE                      0.208       TIME AVG. FORCE       0.112    
 LARGEST RESIDUAL FORCE            -2.417E-09   AT NODE          1   DOF  1
   INSTANCE:                                                                                 
 LARGEST INCREMENT OF DISP.        -9.000E-04   AT NODE          1   DOF  2
   INSTANCE: {assembly node}                                                                 
 LARGEST CORRECTION TO DISP.        2.249E-06   AT NODE        337   DOF  2
   INSTANCE: INST                                                                            
          THE FORCE     EQUILIBRIUM EQUATIONS HAVE CONVERGED

 AVERAGE MOMENT                     3.432E-02   TIME AVG. MOMENT      1.842E-02
 LARGEST RESIDUAL MOMENT           -1.390E-09   AT NODE         26   DOF  6
   INSTANCE: INST                                                                            
 LARGEST INCREMENT OF ROTATION     -1.019E-03   AT NODE        352   DOF  6
   INSTANCE: INST                                                                            
 LARGEST CORRECTION TO ROTATION    -2.660E-07   AT NODE        594   DOF  6
   INSTANCE: INST                                                                            
          THE MOMENT    EQUILIBRIUM EQUATIONS HAVE CONVERGED

 ITERATION SUMMARY FOR THE INCREMENT:   1 TOTAL ITERATIONS, OF WHICH
   0 ARE SEVERE DISCONTINUITY ITERATIONS AND  1 ARE EQUILIBRIUM ITERATIONS.

 TIME INCREMENT COMPLETED  1.000E-02,  FRACTION OF STEP COMPLETED  0.130    
 STEP TIME COMPLETED       0.130    ,  TOTAL TIME COMPLETED        0.130    


  INCREMENT    14 STARTS. ATTEMPT NUMBER  1, TIME INCREMENT  1.000E-02

  NUMBER OF EQUATIONS =      2693     NUMBER OF RHS =    1
  NUMBER OF FLOATING PT. OPERATIONS =  1.90E+05

     CHECK POINT   START OF SOLVER    

     CHECK POINT  END OF SOLVER       

       ELAPSED USER TIME (SEC)      =  0.10000    
       ELAPSED SYSTEM TIME (SEC)    =   0.0000    
       ELAPSED TOTAL CPU TIME (SEC) =  0.10000    
       ELAPSED WALLCLOCK TIME (SEC) =          0
 

 ***WARNING: SOLVER PROBLEM. NUMERICAL SINGULARITY WHEN PROCESSING NODE INST.15 
             D.O.F. 1 RATIO = 74.9537E+12 .
 

 ***WARNING: SOLVER PROBLEM. NUMERICAL SINGULARITY WHEN PROCESSING NODE INST.15 
             D.O.F. 2 RATIO = 260.708E+12  .

               CONVERGENCE CHECKS FOR EQUILIBRIUM ITERATION     1


 AVERAGE FORCE                      0.224       TIME AVG. FORCE       0.120    
 LARGEST RESIDUAL FORCE            -2.830E-09   AT NODE          1   DOF  1
   INSTANCE:                                                                                 
 LARGEST INCREMENT OF DISP.        -9.000E-04   AT NODE          1   DOF  2
   INSTANCE: {assembly node}                                                                 
 LARGEST CORRECTION TO DISP.       -1.189E-06   AT NODE          1   DOF  1
   INSTANCE: {assembly node}                                                                 
          THE FORCE     EQUILIBRIUM EQUATIONS HAVE CONVERGED

 AVERAGE MOMENT                     3.695E-02   TIME AVG. MOMENT      1.975E-02
 LARGEST RESIDUAL MOMENT            1.496E-09   AT NODE        466   DOF  6
   INSTANCE: INST                                                                            
 LARGEST INCREMENT OF ROTATION     -1.019E-03   AT NODE        466   DOF  6
   INSTANCE: INST                                                                            
 LARGEST CORRECTION TO ROTATION     2.658E-07   AT NODE        352   DOF  6
   INSTANCE: INST                                                                            
          THE MOMENT    EQUILIBRIUM EQUATIONS HAVE CONVERGED

 ITERATION SUMMARY FOR THE INCREMENT:   1 TOTAL ITERATIONS, OF WHICH
   0 ARE SEVERE DISCONTINUITY ITERATIONS AND  1 ARE EQUILIBRIUM ITERATIONS.

 TIME INCREMENT COMPLETED  1.000E-02,  FRACTION OF STEP COMPLETED  0.140    
 STEP TIME COMPLETED       0.140    ,  TOTAL TIME COMPLETED        0.140    


  INCREMENT    15 STARTS. ATTEMPT NUMBER  1, TIME INCREMENT  1.000E-02

  NUMBER OF EQUATIONS =      2693     NUMBER OF RHS =    1
  NUMBER OF FLOATING PT. OPERATIONS =  1.90E+05

     CHECK POINT   START OF SOLVER    

     CHECK POINT  END OF SOLVER       

       ELAPSED USER TIME (SEC)      =   0.0000    
       ELAPSED SYSTEM TIME (SEC)    =   0.0000    
       ELAPSED TOTAL CPU TIME (SEC) =   0.0000    
       ELAPSED WALLCLOCK TIME (SEC) =          0
 

 ***WARNING: SOLVER PROBLEM. NUMERICAL SINGULARITY WHEN PROCESSING NODE INST.15 
             D.O.F. 1 RATIO = 329.004E+12  .
 

 ***WARNING: SOLVER PROBLEM. NUMERICAL SINGULARITY WHEN PROCESSING NODE INST.15 
             D.O.F. 2 RATIO = 115.212E+12  .

               CONVERGENCE CHECKS FOR EQUILIBRIUM ITERATION     1


 AVERAGE FORCE                      0.240       TIME AVG. FORCE       0.128    
 LARGEST RESIDUAL FORCE            -3.009E-09   AT NODE          1   DOF  1
   INSTANCE:                                                                                 
 LARGEST INCREMENT OF DISP.        -9.000E-04   AT NODE          1   DOF  2
   INSTANCE: {assembly node}                                                                 
 LARGEST CORRECTION TO DISP.       -1.188E-06   AT NODE          1   DOF  1
   INSTANCE: {assembly node}                                                                 
          THE FORCE     EQUILIBRIUM EQUATIONS HAVE CONVERGED

 AVERAGE MOMENT                     3.958E-02   TIME AVG. MOMENT      2.107E-02
 LARGEST RESIDUAL MOMENT           -1.602E-09   AT NODE         26   DOF  6
   INSTANCE: INST                                                                            
 LARGEST INCREMENT OF ROTATION      1.019E-03   AT NODE        158   DOF  6
   INSTANCE: INST                                                                            
 LARGEST CORRECTION TO ROTATION     2.655E-07   AT NODE        466   DOF  6
   INSTANCE: INST                                                                            
          THE MOMENT    EQUILIBRIUM EQUATIONS HAVE CONVERGED

 ITERATION SUMMARY FOR THE INCREMENT:   1 TOTAL ITERATIONS, OF WHICH
   0 ARE SEVERE DISCONTINUITY ITERATIONS AND  1 ARE EQUILIBRIUM ITERATIONS.

 TIME INCREMENT COMPLETED  1.000E-02,  FRACTION OF STEP COMPLETED  0.150    
 STEP TIME COMPLETED       0.150    ,  TOTAL TIME COMPLETED        0.150    


  INCREMENT    16 STARTS. ATTEMPT NUMBER  1, TIME INCREMENT  1.000E-02

  NUMBER OF EQUATIONS =      2693     NUMBER OF RHS =    1
  NUMBER OF FLOATING PT. OPERATIONS =  1.90E+05

     CHECK POINT   START OF SOLVER    

     CHECK POINT  END OF SOLVER       

       ELAPSED USER TIME (SEC)      =   0.0000    
       ELAPSED SYSTEM TIME (SEC)    =   0.0000    
       ELAPSED TOTAL CPU TIME (SEC) =   0.0000    
       ELAPSED WALLCLOCK TIME (SEC) =          0
 

 ***WARNING: SOLVER PROBLEM. NUMERICAL SINGULARITY WHEN PROCESSING NODE INST.15 
             D.O.F. 1 RATIO = 199.535E+12  .
 

 ***WARNING: SOLVER PROBLEM. NUMERICAL SINGULARITY WHEN PROCESSING NODE INST.15 
             D.O.F. 2 RATIO = 77.8417E+12 .

               CONVERGENCE CHECKS FOR EQUILIBRIUM ITERATION     1


 AVERAGE FORCE                      0.256       TIME AVG. FORCE       0.136    
 LARGEST RESIDUAL FORCE            -3.311E-09   AT NODE          1   DOF  1
   INSTANCE:                                                                                 
 LARGEST INCREMENT OF DISP.        -9.000E-04   AT NODE          1   DOF  2
   INSTANCE: {assembly node}                                                                 
 LARGEST CORRECTION TO DISP.        1.217E-06   AT NODE         28   DOF  1
   INSTANCE: INST                                                                            
          THE FORCE     EQUILIBRIUM EQUATIONS HAVE CONVERGED

 AVERAGE MOMENT                     4.221E-02   TIME AVG. MOMENT      2.239E-02
 LARGEST RESIDUAL MOMENT           -1.707E-09   AT NODE        158   DOF  6
   INSTANCE: INST                                                                            
 LARGEST INCREMENT OF ROTATION     -1.019E-03   AT NODE        352   DOF  6
   INSTANCE: INST                                                                            
 LARGEST CORRECTION TO ROTATION    -2.652E-07   AT NODE        158   DOF  6
   INSTANCE: INST                                                                            
          THE MOMENT    EQUILIBRIUM EQUATIONS HAVE CONVERGED

 ITERATION SUMMARY FOR THE INCREMENT:   1 TOTAL ITERATIONS, OF WHICH
   0 ARE SEVERE DISCONTINUITY ITERATIONS AND  1 ARE EQUILIBRIUM ITERATIONS.

 TIME INCREMENT COMPLETED  1.000E-02,  FRACTION OF STEP COMPLETED  0.160    
 STEP TIME COMPLETED       0.160    ,  TOTAL TIME COMPLETED        0.160    


  INCREMENT    17 STARTS. ATTEMPT NUMBER  1, TIME INCREMENT  1.000E-02

  NUMBER OF EQUATIONS =      2693     NUMBER OF RHS =    1
  NUMBER OF FLOATING PT. OPERATIONS =  1.90E+05

     CHECK POINT   START OF SOLVER    

     CHECK POINT  END OF SOLVER       

       ELAPSED USER TIME (SEC)      =   0.0000    
       ELAPSED SYSTEM TIME (SEC)    =   0.0000    
       ELAPSED TOTAL CPU TIME (SEC) =   0.0000    
       ELAPSED WALLCLOCK TIME (SEC) =          0
 

 ***WARNING: SOLVER PROBLEM. NUMERICAL SINGULARITY WHEN PROCESSING NODE INST.15 
             D.O.F. 1 RATIO = 62.7946E+12 .
 

 ***WARNING: SOLVER PROBLEM. NUMERICAL SINGULARITY WHEN PROCESSING NODE INST.15 
             D.O.F. 2 RATIO = 1.22405E+15.

               CONVERGENCE CHECKS FOR EQUILIBRIUM ITERATION     1


 AVERAGE FORCE                      0.272       TIME AVG. FORCE       0.144    
 LARGEST RESIDUAL FORCE            -3.534E-09   AT NODE          1   DOF  1
   INSTANCE:                                                                                 
 LARGEST INCREMENT OF DISP.        -9.000E-04   AT NODE          1   DOF  2
   INSTANCE: {assembly node}                                                                 
 LARGEST CORRECTION TO DISP.       -1.186E-06   AT NODE          1   DOF  1
   INSTANCE: {assembly node}                                                                 
          THE FORCE     EQUILIBRIUM EQUATIONS HAVE CONVERGED

 AVERAGE MOMENT                     4.484E-02   TIME AVG. MOMENT      2.371E-02
 LARGEST RESIDUAL MOMENT           -1.813E-09   AT NODE        158   DOF  6
   INSTANCE: INST                                                                            
 LARGEST INCREMENT OF ROTATION      1.018E-03   AT NODE        158   DOF  6
   INSTANCE: INST                                                                            
 LARGEST CORRECTION TO ROTATION    -2.650E-07   AT NODE        594   DOF  6
   INSTANCE: INST                                                                            
          THE MOMENT    EQUILIBRIUM EQUATIONS HAVE CONVERGED

 ITERATION SUMMARY FOR THE INCREMENT:   1 TOTAL ITERATIONS, OF WHICH
   0 ARE SEVERE DISCONTINUITY ITERATIONS AND  1 ARE EQUILIBRIUM ITERATIONS.

 TIME INCREMENT COMPLETED  1.000E-02,  FRACTION OF STEP COMPLETED  0.170    
 STEP TIME COMPLETED       0.170    ,  TOTAL TIME COMPLETED        0.170    


  INCREMENT    18 STARTS. ATTEMPT NUMBER  1, TIME INCREMENT  1.000E-02

  NUMBER OF EQUATIONS =      2693     NUMBER OF RHS =    1
  NUMBER OF FLOATING PT. OPERATIONS =  1.90E+05

     CHECK POINT   START OF SOLVER    

     CHECK POINT  END OF SOLVER       

       ELAPSED USER TIME (SEC)      =   0.0000    
       ELAPSED SYSTEM TIME (SEC)    =   0.0000    
       ELAPSED TOTAL CPU TIME (SEC) =   0.0000    
       ELAPSED WALLCLOCK TIME (SEC) =          0
 

 ***WARNING: SOLVER PROBLEM. NUMERICAL SINGULARITY WHEN PROCESSING NODE INST.15 
             D.O.F. 1 RATIO = 715.527E+12  .
 

 ***WARNING: SOLVER PROBLEM. NUMERICAL SINGULARITY WHEN PROCESSING NODE INST.15 
             D.O.F. 2 RATIO = 130.409E+12  .

               CONVERGENCE CHECKS FOR EQUILIBRIUM ITERATION     1


 AVERAGE FORCE                      0.284       TIME AVG. FORCE       0.152    
 LARGEST RESIDUAL FORCE             2.546E-06   AT NODE        611   DOF  1
   INSTANCE: INST                                                                            
 LARGEST INCREMENT OF DISP.        -9.000E-04   AT NODE          1   DOF  2
   INSTANCE: {assembly node}                                                                 
 LARGEST CORRECTION TO DISP.       -1.576E-06   AT NODE          1   DOF  1
   INSTANCE: {assembly node}                                                                 
          THE FORCE     EQUILIBRIUM EQUATIONS HAVE CONVERGED

 AVERAGE MOMENT                     4.745E-02   TIME AVG. MOMENT      2.503E-02
 LARGEST RESIDUAL MOMENT            1.675E-07   AT NODE          6   DOF  6
   INSTANCE: INST                                                                            
 LARGEST INCREMENT OF ROTATION      1.021E-03   AT NODE        594   DOF  6
   INSTANCE: INST                                                                            
 LARGEST CORRECTION TO ROTATION     6.040E-06   AT NODE        611   DOF  6
   INSTANCE: INST                                                                            
          THE MOMENT    EQUILIBRIUM EQUATIONS HAVE CONVERGED

 ITERATION SUMMARY FOR THE INCREMENT:   1 TOTAL ITERATIONS, OF WHICH
   0 ARE SEVERE DISCONTINUITY ITERATIONS AND  1 ARE EQUILIBRIUM ITERATIONS.

 TIME INCREMENT COMPLETED  1.000E-02,  FRACTION OF STEP COMPLETED  0.180    
 STEP TIME COMPLETED       0.180    ,  TOTAL TIME COMPLETED        0.180    


  INCREMENT    19 STARTS. ATTEMPT NUMBER  1, TIME INCREMENT  1.000E-02

  NUMBER OF EQUATIONS =      2693     NUMBER OF RHS =    1
  NUMBER OF FLOATING PT. OPERATIONS =  1.90E+05

     CHECK POINT   START OF SOLVER    

     CHECK POINT  END OF SOLVER       

       ELAPSED USER TIME (SEC)      =  0.10000    
       ELAPSED SYSTEM TIME (SEC)    =   0.0000    
       ELAPSED TOTAL CPU TIME (SEC) =  0.10000    
       ELAPSED WALLCLOCK TIME (SEC) =          0
 

 ***WARNING: SOLVER PROBLEM. NUMERICAL SINGULARITY WHEN PROCESSING NODE INST.15 
             D.O.F. 1 RATIO = 242.981E+12  .
 

 ***WARNING: SOLVER PROBLEM. NUMERICAL SINGULARITY WHEN PROCESSING NODE INST.15 
             D.O.F. 2 RATIO = 822.630E+12  .

               CONVERGENCE CHECKS FOR EQUILIBRIUM ITERATION     1


 AVERAGE FORCE                      0.299       TIME AVG. FORCE       0.159    
 LARGEST RESIDUAL FORCE             2.705E-06   AT NODE        884   DOF  1
   INSTANCE: INST                                                                            
 LARGEST INCREMENT OF DISP.        -9.000E-04   AT NODE          1   DOF  2
   INSTANCE: {assembly node}                                                                 
 LARGEST CORRECTION TO DISP.        5.541E-06   AT NODE         18   DOF  1
   INSTANCE: INST                                                                            
          THE FORCE     EQUILIBRIUM EQUATIONS HAVE CONVERGED

 AVERAGE MOMENT                     4.998E-02   TIME AVG. MOMENT      2.634E-02
 LARGEST RESIDUAL MOMENT            2.408E-07   AT NODE        175   DOF  6
   INSTANCE: INST                                                                            
 LARGEST INCREMENT OF ROTATION      1.036E-03   AT NODE        158   DOF  6
   INSTANCE: INST                                                                            
 LARGEST CORRECTION TO ROTATION    -2.642E-05   AT NODE        336   DOF  6
   INSTANCE: INST                                                                            
 ESTIMATE OF ROTATION CORRECTION    9.406E-09
 MOMENT    EQUILIB. ACCEPTED BASED ON SMALL RESIDUAL AND ESTIMATED CORRECTION

 ITERATION SUMMARY FOR THE INCREMENT:   1 TOTAL ITERATIONS, OF WHICH
   0 ARE SEVERE DISCONTINUITY ITERATIONS AND  1 ARE EQUILIBRIUM ITERATIONS.

 TIME INCREMENT COMPLETED  1.000E-02,  FRACTION OF STEP COMPLETED  0.190    
 STEP TIME COMPLETED       0.190    ,  TOTAL TIME COMPLETED        0.190    


  INCREMENT    20 STARTS. ATTEMPT NUMBER  1, TIME INCREMENT  1.000E-02

  NUMBER OF EQUATIONS =      2693     NUMBER OF RHS =    1
  NUMBER OF FLOATING PT. OPERATIONS =  1.90E+05

     CHECK POINT   START OF SOLVER    

     CHECK POINT  END OF SOLVER       

       ELAPSED USER TIME (SEC)      =   0.0000    
       ELAPSED SYSTEM TIME (SEC)    =   0.0000    
       ELAPSED TOTAL CPU TIME (SEC) =   0.0000    
       ELAPSED WALLCLOCK TIME (SEC) =          0
 

 ***WARNING: SOLVER PROBLEM. NUMERICAL SINGULARITY WHEN PROCESSING NODE INST.15 
             D.O.F. 1 RATIO = 642.564E+12  .
 

 ***WARNING: SOLVER PROBLEM. NUMERICAL SINGULARITY WHEN PROCESSING NODE INST.15 
             D.O.F. 2 RATIO = 274.205E+12  .

               CONVERGENCE CHECKS FOR EQUILIBRIUM ITERATION     1


 AVERAGE FORCE                      0.317       TIME AVG. FORCE       0.167    
 LARGEST RESIDUAL FORCE            -1.433E-06   AT NODE        450   DOF  1
   INSTANCE: INST                                                                            
 LARGEST INCREMENT OF DISP.        -9.000E-04   AT NODE          1   DOF  2
   INSTANCE: {assembly node}                                                                 
 LARGEST CORRECTION TO DISP.        7.813E-06   AT NODE        819   DOF  1
   INSTANCE: INST                                                                            
          THE FORCE     EQUILIBRIUM EQUATIONS HAVE CONVERGED

 AVERAGE MOMENT                     5.245E-02   TIME AVG. MOMENT      2.765E-02
 LARGEST RESIDUAL MOMENT           -1.105E-07   AT NODE        450   DOF  6
   INSTANCE: INST                                                                            
 LARGEST INCREMENT OF ROTATION     -1.048E-03   AT NODE        466   DOF  6
   INSTANCE: INST                                                                            
 LARGEST CORRECTION TO ROTATION     2.052E-05   AT NODE        838   DOF  6
   INSTANCE: INST                                                                            
 ESTIMATE OF ROTATION CORRECTION   -4.378E-09
 MOMENT    EQUILIB. ACCEPTED BASED ON SMALL RESIDUAL AND ESTIMATED CORRECTION

 ITERATION SUMMARY FOR THE INCREMENT:   1 TOTAL ITERATIONS, OF WHICH
   0 ARE SEVERE DISCONTINUITY ITERATIONS AND  1 ARE EQUILIBRIUM ITERATIONS.

 TIME INCREMENT COMPLETED  1.000E-02,  FRACTION OF STEP COMPLETED  0.200    
 STEP TIME COMPLETED       0.200    ,  TOTAL TIME COMPLETED        0.200    


  INCREMENT    21 STARTS. ATTEMPT NUMBER  1, TIME INCREMENT  1.000E-02

  NUMBER OF EQUATIONS =      2693     NUMBER OF RHS =    1
  NUMBER OF FLOATING PT. OPERATIONS =  1.90E+05

     CHECK POINT   START OF SOLVER    

     CHECK POINT  END OF SOLVER       

       ELAPSED USER TIME (SEC)      =  0.10000    
       ELAPSED SYSTEM TIME (SEC)    =   0.0000    
       ELAPSED TOTAL CPU TIME (SEC) =  0.10000    
       ELAPSED WALLCLOCK TIME (SEC) =          0
 

 ***WARNING: SOLVER PROBLEM. NUMERICAL SINGULARITY WHEN PROCESSING NODE INST.15 
             D.O.F. 1 RATIO = 89.2304E+12 .
 

 ***WARNING: SOLVER PROBLEM. NUMERICAL SINGULARITY WHEN PROCESSING NODE INST.15 
             D.O.F. 2 RATIO = 357.985E+12  .

               CONVERGENCE CHECKS FOR EQUILIBRIUM ITERATION     1


 AVERAGE FORCE                      0.332       TIME AVG. FORCE       0.175    
 LARGEST RESIDUAL FORCE             2.571E-07   AT NODE        773   DOF  1
   INSTANCE: INST                                                                            
 LARGEST INCREMENT OF DISP.        -9.000E-04   AT NODE          1   DOF  2
   INSTANCE: {assembly node}                                                                 
 LARGEST CORRECTION TO DISP.        2.116E-06   AT NODE        610   DOF  2
   INSTANCE: INST                                                                            
          THE FORCE     EQUILIBRIUM EQUATIONS HAVE CONVERGED

 AVERAGE MOMENT                     5.487E-02   TIME AVG. MOMENT      2.895E-02
 LARGEST RESIDUAL MOMENT            1.204E-07   AT NODE        772   DOF  6
   INSTANCE: INST                                                                            
 LARGEST INCREMENT OF ROTATION     -1.059E-03   AT NODE        352   DOF  6
   INSTANCE: INST                                                                            
 LARGEST CORRECTION TO ROTATION    -1.667E-05   AT NODE        367   DOF  6
   INSTANCE: INST                                                                            
 ESTIMATE OF ROTATION CORRECTION    4.733E-09
 MOMENT    EQUILIB. ACCEPTED BASED ON SMALL RESIDUAL AND ESTIMATED CORRECTION

 ITERATION SUMMARY FOR THE INCREMENT:   1 TOTAL ITERATIONS, OF WHICH
   0 ARE SEVERE DISCONTINUITY ITERATIONS AND  1 ARE EQUILIBRIUM ITERATIONS.

 TIME INCREMENT COMPLETED  1.000E-02,  FRACTION OF STEP COMPLETED  0.210    
 STEP TIME COMPLETED       0.210    ,  TOTAL TIME COMPLETED        0.210    


  INCREMENT    22 STARTS. ATTEMPT NUMBER  1, TIME INCREMENT  1.000E-02

  NUMBER OF EQUATIONS =      2693     NUMBER OF RHS =    1
  NUMBER OF FLOATING PT. OPERATIONS =  1.90E+05

     CHECK POINT   START OF SOLVER    

     CHECK POINT  END OF SOLVER       

       ELAPSED USER TIME (SEC)      =   0.0000    
       ELAPSED SYSTEM TIME (SEC)    =   0.0000    
       ELAPSED TOTAL CPU TIME (SEC) =   0.0000    
       ELAPSED WALLCLOCK TIME (SEC) =          0
 

 ***WARNING: SOLVER PROBLEM. NUMERICAL SINGULARITY WHEN PROCESSING NODE INST.15 
             D.O.F. 1 RATIO = 47.1652E+12 .
 

 ***WARNING: SOLVER PROBLEM. NUMERICAL SINGULARITY WHEN PROCESSING NODE INST.15 
             D.O.F. 2 RATIO = 367.702E+12  .

               CONVERGENCE CHECKS FOR EQUILIBRIUM ITERATION     1


 AVERAGE FORCE                      0.341       TIME AVG. FORCE       0.183    
 LARGEST RESIDUAL FORCE             3.112E-06   AT NODE        579   DOF  1
   INSTANCE: INST                                                                            
 LARGEST INCREMENT OF DISP.        -9.000E-04   AT NODE          1   DOF  2
   INSTANCE: {assembly node}                                                                 
 LARGEST CORRECTION TO DISP.       -1.591E-06   AT NODE        773   DOF  2
   INSTANCE: INST                                                                            
          THE FORCE     EQUILIBRIUM EQUATIONS HAVE CONVERGED

 AVERAGE MOMENT                     5.723E-02   TIME AVG. MOMENT      3.023E-02
 LARGEST RESIDUAL MOMENT            3.140E-07   AT NODE        173   DOF  6
   INSTANCE: INST                                                                            
 LARGEST INCREMENT OF ROTATION     -1.066E-03   AT NODE        466   DOF  6
   INSTANCE: INST                                                                            
 LARGEST CORRECTION TO ROTATION     1.299E-05   AT NODE        839   DOF  6
   INSTANCE: INST                                                                            
 ESTIMATE OF ROTATION CORRECTION   -1.047E-08
 MOMENT    EQUILIB. ACCEPTED BASED ON SMALL RESIDUAL AND ESTIMATED CORRECTION

 ITERATION SUMMARY FOR THE INCREMENT:   1 TOTAL ITERATIONS, OF WHICH
   0 ARE SEVERE DISCONTINUITY ITERATIONS AND  1 ARE EQUILIBRIUM ITERATIONS.

 TIME INCREMENT COMPLETED  1.000E-02,  FRACTION OF STEP COMPLETED  0.220    
 STEP TIME COMPLETED       0.220    ,  TOTAL TIME COMPLETED        0.220    


  INCREMENT    23 STARTS. ATTEMPT NUMBER  1, TIME INCREMENT  1.000E-02

  NUMBER OF EQUATIONS =      2693     NUMBER OF RHS =    1
  NUMBER OF FLOATING PT. OPERATIONS =  1.90E+05

     CHECK POINT   START OF SOLVER    

     CHECK POINT  END OF SOLVER       

       ELAPSED USER TIME (SEC)      =   0.0000    
       ELAPSED SYSTEM TIME (SEC)    =   0.0000    
       ELAPSED TOTAL CPU TIME (SEC) =   0.0000    
       ELAPSED WALLCLOCK TIME (SEC) =          0
 

 ***WARNING: SOLVER PROBLEM. NUMERICAL SINGULARITY WHEN PROCESSING NODE INST.15 
             D.O.F. 1 RATIO = 69.2364E+12 .
 

 ***WARNING: SOLVER PROBLEM. NUMERICAL SINGULARITY WHEN PROCESSING NODE INST.15 
             D.O.F. 2 RATIO = 296.778E+12  .

               CONVERGENCE CHECKS FOR EQUILIBRIUM ITERATION     1


 AVERAGE FORCE                      0.359       TIME AVG. FORCE       0.190    
 LARGEST RESIDUAL FORCE            -1.937E-06   AT NODE        641   DOF  1
   INSTANCE: INST                                                                            
 LARGEST INCREMENT OF DISP.        -9.000E-04   AT NODE          1   DOF  2
   INSTANCE: {assembly node}                                                                 
 LARGEST CORRECTION TO DISP.       -2.639E-06   AT NODE        328   DOF  2
   INSTANCE: INST                                                                            
          THE FORCE     EQUILIBRIUM EQUATIONS HAVE CONVERGED

 AVERAGE MOMENT                     5.946E-02   TIME AVG. MOMENT      3.150E-02
 LARGEST RESIDUAL MOMENT           -3.540E-07   AT NODE        484   DOF  6
   INSTANCE: INST                                                                            
 LARGEST INCREMENT OF ROTATION     -1.049E-03   AT NODE        466   DOF  6
   INSTANCE: INST                                                                            
 LARGEST CORRECTION TO ROTATION     2.110E-05   AT NODE        640   DOF  6
   INSTANCE: INST                                                                            
 ESTIMATE OF ROTATION CORRECTION   -1.032E-08
 MOMENT    EQUILIB. ACCEPTED BASED ON SMALL RESIDUAL AND ESTIMATED CORRECTION

 ITERATION SUMMARY FOR THE INCREMENT:   1 TOTAL ITERATIONS, OF WHICH
   0 ARE SEVERE DISCONTINUITY ITERATIONS AND  1 ARE EQUILIBRIUM ITERATIONS.

 TIME INCREMENT COMPLETED  1.000E-02,  FRACTION OF STEP COMPLETED  0.230    
 STEP TIME COMPLETED       0.230    ,  TOTAL TIME COMPLETED        0.230    


  INCREMENT    24 STARTS. ATTEMPT NUMBER  1, TIME INCREMENT  1.000E-02

  NUMBER OF EQUATIONS =      2693     NUMBER OF RHS =    1
  NUMBER OF FLOATING PT. OPERATIONS =  1.90E+05

     CHECK POINT   START OF SOLVER    

     CHECK POINT  END OF SOLVER       

       ELAPSED USER TIME (SEC)      =   0.0000    
       ELAPSED SYSTEM TIME (SEC)    =   0.0000    
       ELAPSED TOTAL CPU TIME (SEC) =   0.0000    
       ELAPSED WALLCLOCK TIME (SEC) =          0
 

 ***WARNING: SOLVER PROBLEM. NUMERICAL SINGULARITY WHEN PROCESSING NODE INST.15 
             D.O.F. 1 RATIO = 139.706E+12  .
 

 ***WARNING: SOLVER PROBLEM. NUMERICAL SINGULARITY WHEN PROCESSING NODE INST.15 
             D.O.F. 2 RATIO = 1.35672E+15.

               CONVERGENCE CHECKS FOR EQUILIBRIUM ITERATION     1


 AVERAGE FORCE                      0.362       TIME AVG. FORCE       0.197    
 LARGEST RESIDUAL FORCE             4.723E-04   AT NODE        106   DOF  1
   INSTANCE: INST                                                                            
 LARGEST INCREMENT OF DISP.        -9.000E-04   AT NODE          1   DOF  2
   INSTANCE: {assembly node}                                                                 
 LARGEST CORRECTION TO DISP.        5.079E-06   AT NODE        818   DOF  2
   INSTANCE: INST                                                                            
          THE FORCE     EQUILIBRIUM EQUATIONS HAVE CONVERGED

 AVERAGE MOMENT                     6.154E-02   TIME AVG. MOMENT      3.275E-02
 LARGEST RESIDUAL MOMENT            1.930E-05   AT NODE        113   DOF  6
   INSTANCE: INST                                                                            
 LARGEST INCREMENT OF ROTATION      1.028E-03   AT NODE        158   DOF  6
   INSTANCE: INST                                                                            
 LARGEST CORRECTION TO ROTATION    -2.232E-05   AT NODE        307   DOF  6
   INSTANCE: INST                                                                            
 ESTIMATE OF ROTATION CORRECTION    5.147E-07
 MOMENT    EQUILIB. ACCEPTED BASED ON SMALL RESIDUAL AND ESTIMATED CORRECTION

 ITERATION SUMMARY FOR THE INCREMENT:   1 TOTAL ITERATIONS, OF WHICH
   0 ARE SEVERE DISCONTINUITY ITERATIONS AND  1 ARE EQUILIBRIUM ITERATIONS.

 TIME INCREMENT COMPLETED  1.000E-02,  FRACTION OF STEP COMPLETED  0.240    
 STEP TIME COMPLETED       0.240    ,  TOTAL TIME COMPLETED        0.240    


  INCREMENT    25 STARTS. ATTEMPT NUMBER  1, TIME INCREMENT  1.000E-02

  NUMBER OF EQUATIONS =      2693     NUMBER OF RHS =    1
  NUMBER OF FLOATING PT. OPERATIONS =  1.90E+05

     CHECK POINT   START OF SOLVER    

     CHECK POINT  END OF SOLVER       

       ELAPSED USER TIME (SEC)      =   0.0000    
       ELAPSED SYSTEM TIME (SEC)    =   0.0000    
       ELAPSED TOTAL CPU TIME (SEC) =   0.0000    
       ELAPSED WALLCLOCK TIME (SEC) =          0
 

 ***WARNING: SOLVER PROBLEM. NUMERICAL SINGULARITY WHEN PROCESSING NODE INST.15 
             D.O.F. 1 RATIO = 147.597E+12  .
 

 ***WARNING: SOLVER PROBLEM. NUMERICAL SINGULARITY WHEN PROCESSING NODE INST.15 
             D.O.F. 2 RATIO = 114.435E+12  .

               CONVERGENCE CHECKS FOR EQUILIBRIUM ITERATION     1


 AVERAGE FORCE                      0.383       TIME AVG. FORCE       0.205    
 LARGEST RESIDUAL FORCE             2.190E-06   AT NODE        744   DOF  1
   INSTANCE: INST                                                                            
 LARGEST INCREMENT OF DISP.        -9.000E-04   AT NODE          1   DOF  2
   INSTANCE: {assembly node}                                                                 
 LARGEST CORRECTION TO DISP.        1.986E-06   AT NODE         25   DOF  2
   INSTANCE: INST                                                                            
          THE FORCE     EQUILIBRIUM EQUATIONS HAVE CONVERGED

 AVERAGE MOMENT                     6.351E-02   TIME AVG. MOMENT      3.398E-02
 LARGEST RESIDUAL MOMENT            5.943E-07   AT NODE        743   DOF  6
   INSTANCE: INST                                                                            
 LARGEST INCREMENT OF ROTATION      1.012E-03   AT NODE        594   DOF  6
   INSTANCE: INST                                                                            
 LARGEST CORRECTION TO ROTATION     1.774E-05   AT NODE        520   DOF  6
   INSTANCE: INST                                                                            
 ESTIMATE OF ROTATION CORRECTION   -1.086E-08
 MOMENT    EQUILIB. ACCEPTED BASED ON SMALL RESIDUAL AND ESTIMATED CORRECTION

 ITERATION SUMMARY FOR THE INCREMENT:   1 TOTAL ITERATIONS, OF WHICH
   0 ARE SEVERE DISCONTINUITY ITERATIONS AND  1 ARE EQUILIBRIUM ITERATIONS.

 TIME INCREMENT COMPLETED  1.000E-02,  FRACTION OF STEP COMPLETED  0.250    
 STEP TIME COMPLETED       0.250    ,  TOTAL TIME COMPLETED        0.250    


  INCREMENT    26 STARTS. ATTEMPT NUMBER  1, TIME INCREMENT  1.000E-02

  NUMBER OF EQUATIONS =      2693     NUMBER OF RHS =    1
  NUMBER OF FLOATING PT. OPERATIONS =  1.90E+05

     CHECK POINT   START OF SOLVER    

     CHECK POINT  END OF SOLVER       

       ELAPSED USER TIME (SEC)      =   0.0000    
       ELAPSED SYSTEM TIME (SEC)    =   0.0000    
       ELAPSED TOTAL CPU TIME (SEC) =   0.0000    
       ELAPSED WALLCLOCK TIME (SEC) =          0
 

 ***WARNING: SOLVER PROBLEM. NUMERICAL SINGULARITY WHEN PROCESSING NODE INST.15 
             D.O.F. 1 RATIO = 156.244E+12  .
 

 ***WARNING: SOLVER PROBLEM. NUMERICAL SINGULARITY WHEN PROCESSING NODE INST.15 
             D.O.F. 2 RATIO = 741.857E+12  .

               CONVERGENCE CHECKS FOR EQUILIBRIUM ITERATION     1


 AVERAGE FORCE                      0.390       TIME AVG. FORCE       0.212    
 LARGEST RESIDUAL FORCE            -3.172E-06   AT NODE        793   DOF  1
   INSTANCE: INST                                                                            
 LARGEST INCREMENT OF DISP.        -9.000E-04   AT NODE          1   DOF  2
   INSTANCE: {assembly node}                                                                 
 LARGEST CORRECTION TO DISP.        4.030E-06   AT NODE          6   DOF  2
   INSTANCE: INST                                                                            
          THE FORCE     EQUILIBRIUM EQUATIONS HAVE CONVERGED

 AVERAGE MOMENT                     6.539E-02   TIME AVG. MOMENT      3.519E-02
 LARGEST RESIDUAL MOMENT            3.810E-07   AT NODE        794   DOF  6
   INSTANCE: INST                                                                            
 LARGEST INCREMENT OF ROTATION     -1.003E-03   AT NODE        466   DOF  6
   INSTANCE: INST                                                                            
 LARGEST CORRECTION TO ROTATION    -1.123E-05   AT NODE        310   DOF  6
   INSTANCE: INST                                                                            
 ESTIMATE OF ROTATION CORRECTION   -5.751E-09
 MOMENT    EQUILIB. ACCEPTED BASED ON SMALL RESIDUAL AND ESTIMATED CORRECTION

 ITERATION SUMMARY FOR THE INCREMENT:   1 TOTAL ITERATIONS, OF WHICH
   0 ARE SEVERE DISCONTINUITY ITERATIONS AND  1 ARE EQUILIBRIUM ITERATIONS.

 TIME INCREMENT COMPLETED  1.000E-02,  FRACTION OF STEP COMPLETED  0.260    
 STEP TIME COMPLETED       0.260    ,  TOTAL TIME COMPLETED        0.260    


  INCREMENT    27 STARTS. ATTEMPT NUMBER  1, TIME INCREMENT  1.000E-02

  NUMBER OF EQUATIONS =      2693     NUMBER OF RHS =    1
  NUMBER OF FLOATING PT. OPERATIONS =  1.90E+05

     CHECK POINT   START OF SOLVER    

     CHECK POINT  END OF SOLVER       

       ELAPSED USER TIME (SEC)      =   0.0000    
       ELAPSED SYSTEM TIME (SEC)    =   0.0000    
       ELAPSED TOTAL CPU TIME (SEC) =   0.0000    
       ELAPSED WALLCLOCK TIME (SEC) =          0
 

 ***WARNING: SOLVER PROBLEM. NUMERICAL SINGULARITY WHEN PROCESSING NODE INST.15 
             D.O.F. 1 RATIO = 55.1512E+12 .
 

 ***WARNING: SOLVER PROBLEM. NUMERICAL SINGULARITY WHEN PROCESSING NODE INST.15 
             D.O.F. 2 RATIO = 654.531E+12  .

               CONVERGENCE CHECKS FOR EQUILIBRIUM ITERATION     1


 AVERAGE FORCE                      0.400       TIME AVG. FORCE       0.219    
 LARGEST RESIDUAL FORCE            -3.925E-06   AT NODE        521   DOF  1
   INSTANCE: INST                                                                            
 LARGEST INCREMENT OF DISP.        -9.000E-04   AT NODE          1   DOF  2
   INSTANCE: {assembly node}                                                                 
 LARGEST CORRECTION TO DISP.       -1.677E-06   AT NODE        335   DOF  2
   INSTANCE: INST                                                                            
          THE FORCE     EQUILIBRIUM EQUATIONS HAVE CONVERGED

 AVERAGE MOMENT                     6.722E-02   TIME AVG. MOMENT      3.638E-02
 LARGEST RESIDUAL MOMENT            6.625E-07   AT NODE        636   DOF  6
   INSTANCE: INST                                                                            
 LARGEST INCREMENT OF ROTATION      9.936E-04   AT NODE        158   DOF  6
   INSTANCE: INST                                                                            
 LARGEST CORRECTION TO ROTATION    -9.990E-06   AT NODE        311   DOF  6
   INSTANCE: INST                                                                            
 ESTIMATE OF ROTATION CORRECTION   -1.011E-08
 MOMENT    EQUILIB. ACCEPTED BASED ON SMALL RESIDUAL AND ESTIMATED CORRECTION

 ITERATION SUMMARY FOR THE INCREMENT:   1 TOTAL ITERATIONS, OF WHICH
   0 ARE SEVERE DISCONTINUITY ITERATIONS AND  1 ARE EQUILIBRIUM ITERATIONS.

 TIME INCREMENT COMPLETED  1.000E-02,  FRACTION OF STEP COMPLETED  0.270    
 STEP TIME COMPLETED       0.270    ,  TOTAL TIME COMPLETED        0.270    


  INCREMENT    28 STARTS. ATTEMPT NUMBER  1, TIME INCREMENT  1.000E-02

  NUMBER OF EQUATIONS =      2693     NUMBER OF RHS =    1
  NUMBER OF FLOATING PT. OPERATIONS =  1.90E+05

     CHECK POINT   START OF SOLVER    

     CHECK POINT  END OF SOLVER       

       ELAPSED USER TIME (SEC)      =   0.0000    
       ELAPSED SYSTEM TIME (SEC)    =   0.0000    
       ELAPSED TOTAL CPU TIME (SEC) =   0.0000    
       ELAPSED WALLCLOCK TIME (SEC) =          0
 

 ***WARNING: SOLVER PROBLEM. NUMERICAL SINGULARITY WHEN PROCESSING NODE INST.15 
             D.O.F. 1 RATIO = 115.976E+12  .
 

 ***WARNING: SOLVER PROBLEM. NUMERICAL SINGULARITY WHEN PROCESSING NODE INST.15 
             D.O.F. 2 RATIO = 717.788E+12  .

               CONVERGENCE CHECKS FOR EQUILIBRIUM ITERATION     1


 AVERAGE FORCE                      0.405       TIME AVG. FORCE       0.226    
 LARGEST RESIDUAL FORCE             7.827E-03   AT NODE         29   DOF  1
   INSTANCE: INST                                                                            
 LARGEST INCREMENT OF DISP.        -9.000E-04   AT NODE          1   DOF  2
   INSTANCE: {assembly node}                                                                 
 LARGEST CORRECTION TO DISP.       -1.216E-06   AT NODE         29   DOF  2
   INSTANCE: INST                                                                            
          FORCE     EQUILIBRIUM NOT ACHIEVED WITHIN TOLERANCE.

 AVERAGE MOMENT                     6.900E-02   TIME AVG. MOMENT      3.754E-02
 LARGEST RESIDUAL MOMENT            8.710E-05   AT NODE         29   DOF  6
   INSTANCE: INST                                                                            
 LARGEST INCREMENT OF ROTATION      9.886E-04   AT NODE        594   DOF  6
   INSTANCE: INST                                                                            
 LARGEST CORRECTION TO ROTATION    -1.218E-05   AT NODE        775   DOF  6
   INSTANCE: INST                                                                            
 ESTIMATE OF ROTATION CORRECTION   -1.397E-06
 MOMENT    EQUILIB. ACCEPTED BASED ON SMALL RESIDUAL AND ESTIMATED CORRECTION

  NUMBER OF EQUATIONS =      2693     NUMBER OF RHS =    1
  NUMBER OF FLOATING PT. OPERATIONS =  1.90E+05

     CHECK POINT   START OF SOLVER    

     CHECK POINT  END OF SOLVER       

       ELAPSED USER TIME (SEC)      =   0.0000    
       ELAPSED SYSTEM TIME (SEC)    =   0.0000    
       ELAPSED TOTAL CPU TIME (SEC) =   0.0000    
       ELAPSED WALLCLOCK TIME (SEC) =          0
 

 ***WARNING: SOLVER PROBLEM. NUMERICAL SINGULARITY WHEN PROCESSING NODE INST.15 
             D.O.F. 1 RATIO = 75.3694E+12 .
 

 ***WARNING: SOLVER PROBLEM. NUMERICAL SINGULARITY WHEN PROCESSING NODE INST.15 
             D.O.F. 2 RATIO = 470.763E+12  .

               CONVERGENCE CHECKS FOR EQUILIBRIUM ITERATION     2


 AVERAGE FORCE                      0.416       TIME AVG. FORCE       0.226    
 LARGEST RESIDUAL FORCE             4.091E-08   AT NODE          6   DOF  2
   INSTANCE: INST                                                                            
 LARGEST INCREMENT OF DISP.        -9.000E-04   AT NODE          1   DOF  2
   INSTANCE: {assembly node}                                                                 
 LARGEST CORRECTION TO DISP.       -7.714E-07   AT NODE         17   DOF  2
   INSTANCE: INST                                                                            
          THE FORCE     EQUILIBRIUM EQUATIONS HAVE CONVERGED

 AVERAGE MOMENT                     6.899E-02   TIME AVG. MOMENT      3.754E-02
 LARGEST RESIDUAL MOMENT            1.256E-07   AT NODE         25   DOF  6
   INSTANCE: INST                                                                            
 LARGEST INCREMENT OF ROTATION      9.901E-04   AT NODE        158   DOF  6
   INSTANCE: INST                                                                            
 LARGEST CORRECTION TO ROTATION     3.146E-06   AT NODE        836   DOF  6
   INSTANCE: INST                                                                            
          THE MOMENT    EQUILIBRIUM EQUATIONS HAVE CONVERGED

 ITERATION SUMMARY FOR THE INCREMENT:   2 TOTAL ITERATIONS, OF WHICH
   0 ARE SEVERE DISCONTINUITY ITERATIONS AND  2 ARE EQUILIBRIUM ITERATIONS.

 TIME INCREMENT COMPLETED  1.000E-02,  FRACTION OF STEP COMPLETED  0.280    
 STEP TIME COMPLETED       0.280    ,  TOTAL TIME COMPLETED        0.280    


  INCREMENT    29 STARTS. ATTEMPT NUMBER  1, TIME INCREMENT  1.000E-02

  NUMBER OF EQUATIONS =      2693     NUMBER OF RHS =    1
  NUMBER OF FLOATING PT. OPERATIONS =  1.90E+05

     CHECK POINT   START OF SOLVER    

     CHECK POINT  END OF SOLVER       

       ELAPSED USER TIME (SEC)      =   0.0000    
       ELAPSED SYSTEM TIME (SEC)    =   0.0000    
       ELAPSED TOTAL CPU TIME (SEC) =   0.0000    
       ELAPSED WALLCLOCK TIME (SEC) =          0
 

 ***WARNING: SOLVER PROBLEM. NUMERICAL SINGULARITY WHEN PROCESSING NODE INST.15 
             D.O.F. 1 RATIO = 109.077E+12  .
 

 ***WARNING: SOLVER PROBLEM. NUMERICAL SINGULARITY WHEN PROCESSING NODE INST.15 
             D.O.F. 2 RATIO = 102.565E+12  .

               CONVERGENCE CHECKS FOR EQUILIBRIUM ITERATION     1


 AVERAGE FORCE                      0.272       TIME AVG. FORCE       0.228    
 LARGEST RESIDUAL FORCE            -1.082E-03   AT NODE        863   DOF  1
   INSTANCE: INST                                                                            
 LARGEST INCREMENT OF DISP.        -9.000E-04   AT NODE          1   DOF  2
   INSTANCE: {assembly node}                                                                 
 LARGEST CORRECTION TO DISP.        2.729E-05   AT NODE        836   DOF  1
   INSTANCE: INST                                                                            
 ESTIMATE OF DISP.    CORRECTION   -5.443E-07
 FORCE     EQUILIB. ACCEPTED BASED ON SMALL RESIDUAL AND ESTIMATED CORRECTION

 AVERAGE MOMENT                     7.042E-02   TIME AVG. MOMENT      3.868E-02
 LARGEST RESIDUAL MOMENT            4.517E-05   AT NODE        493   DOF  6
   INSTANCE: INST                                                                            
 LARGEST INCREMENT OF ROTATION     -1.064E-03   AT NODE        352   DOF  6
   INSTANCE: INST                                                                            
 LARGEST CORRECTION TO ROTATION     1.519E-04   AT NODE        611   DOF  6
   INSTANCE: INST                                                                            
[...]
             D.O.F. 2 RATIO = 80.0444E+12 .

               CONVERGENCE CHECKS FOR EQUILIBRIUM ITERATION     1


 AVERAGE FORCE                      0.513       TIME AVG. FORCE       0.397    
 LARGEST RESIDUAL FORCE            -5.000E-06   AT NODE          1   DOF  1
   INSTANCE:                                                                                 
 LARGEST INCREMENT OF DISP.        -9.000E-04   AT NODE          1   DOF  2
   INSTANCE: {assembly node}                                                                 
 LARGEST CORRECTION TO DISP.        8.653E-06   AT NODE        884   DOF  1
   INSTANCE: INST                                                                            
          THE FORCE     EQUILIBRIUM EQUATIONS HAVE CONVERGED

 AVERAGE MOMENT                     8.724E-02   TIME AVG. MOMENT      6.767E-02
 LARGEST RESIDUAL MOMENT            5.844E-08   AT NODE        172   DOF  6
   INSTANCE: INST                                                                            
 LARGEST INCREMENT OF ROTATION      1.401E-03   AT NODE        594   DOF  6
   INSTANCE: INST                                                                            
 LARGEST CORRECTION TO ROTATION     4.514E-05   AT NODE         30   DOF  6
   INSTANCE: INST                                                                            
 ESTIMATE OF ROTATION CORRECTION   -3.924E-08
 MOMENT    EQUILIB. ACCEPTED BASED ON SMALL RESIDUAL AND ESTIMATED CORRECTION

 ITERATION SUMMARY FOR THE INCREMENT:   1 TOTAL ITERATIONS, OF WHICH
   0 ARE SEVERE DISCONTINUITY ITERATIONS AND  1 ARE EQUILIBRIUM ITERATIONS.

 TIME INCREMENT COMPLETED  1.000E-02,  FRACTION OF STEP COMPLETED  0.930    
 STEP TIME COMPLETED       0.930    ,  TOTAL TIME COMPLETED        0.930    


  INCREMENT    94 STARTS. ATTEMPT NUMBER  1, TIME INCREMENT  1.000E-02

  NUMBER OF EQUATIONS =      2693     NUMBER OF RHS =    1
  NUMBER OF FLOATING PT. OPERATIONS =  1.90E+05

     CHECK POINT   START OF SOLVER    

     CHECK POINT  END OF SOLVER       

       ELAPSED USER TIME (SEC)      =  0.10000    
       ELAPSED SYSTEM TIME (SEC)    =   0.0000    
       ELAPSED TOTAL CPU TIME (SEC) =  0.10000    
       ELAPSED WALLCLOCK TIME (SEC) =          0
 

 ***WARNING: SOLVER PROBLEM. NUMERICAL SINGULARITY WHEN PROCESSING NODE INST.15 
             D.O.F. 1 RATIO = 378.442E+12  .
 

 ***WARNING: SOLVER PROBLEM. NUMERICAL SINGULARITY WHEN PROCESSING NODE INST.15 
             D.O.F. 2 RATIO = 818.691E+12  .

               CONVERGENCE CHECKS FOR EQUILIBRIUM ITERATION     1


 AVERAGE FORCE                      0.321       TIME AVG. FORCE       0.397    
 LARGEST RESIDUAL FORCE            -4.299E-05   AT NODE          1   DOF  1
   INSTANCE:                                                                                 
 LARGEST INCREMENT OF DISP.        -9.000E-04   AT NODE          1   DOF  2
   INSTANCE: {assembly node}                                                                 
 LARGEST CORRECTION TO DISP.        6.443E-05   AT NODE        884   DOF  1
   INSTANCE: INST                                                                            
 ESTIMATE OF DISP.    CORRECTION   -2.532E-07
 FORCE     EQUILIB. ACCEPTED BASED ON SMALL RESIDUAL AND ESTIMATED CORRECTION

 AVERAGE MOMENT                     8.738E-02   TIME AVG. MOMENT      6.788E-02
 LARGEST RESIDUAL MOMENT           -1.729E-07   AT NODE        484   DOF  6
   INSTANCE: INST                                                                            
 LARGEST INCREMENT OF ROTATION     -1.270E-03   AT NODE        466   DOF  6
   INSTANCE: INST                                                                            
 LARGEST CORRECTION TO ROTATION    -1.315E-04   AT NODE        594   DOF  6
   INSTANCE: INST                                                                            
 ESTIMATE OF ROTATION CORRECTION   -1.373E-07
 MOMENT    EQUILIB. ACCEPTED BASED ON SMALL RESIDUAL AND ESTIMATED CORRECTION

 ITERATION SUMMARY FOR THE INCREMENT:   1 TOTAL ITERATIONS, OF WHICH
   0 ARE SEVERE DISCONTINUITY ITERATIONS AND  1 ARE EQUILIBRIUM ITERATIONS.

 TIME INCREMENT COMPLETED  1.000E-02,  FRACTION OF STEP COMPLETED  0.940    
 STEP TIME COMPLETED       0.940    ,  TOTAL TIME COMPLETED        0.940    


  INCREMENT    95 STARTS. ATTEMPT NUMBER  1, TIME INCREMENT  1.000E-02

  NUMBER OF EQUATIONS =      2693     NUMBER OF RHS =    1
  NUMBER OF FLOATING PT. OPERATIONS =  1.90E+05

     CHECK POINT   START OF SOLVER    

     CHECK POINT  END OF SOLVER       

       ELAPSED USER TIME (SEC)      =   0.0000    
       ELAPSED SYSTEM TIME (SEC)    =   0.0000    
       ELAPSED TOTAL CPU TIME (SEC) =   0.0000    
       ELAPSED WALLCLOCK TIME (SEC) =          0
 

 ***WARNING: SOLVER PROBLEM. NUMERICAL SINGULARITY WHEN PROCESSING NODE INST.15 
             D.O.F. 1 RATIO = 41.9509E+12 .
 

 ***WARNING: SOLVER PROBLEM. NUMERICAL SINGULARITY WHEN PROCESSING NODE INST.15 
             D.O.F. 2 RATIO = 300.355E+12  .

               CONVERGENCE CHECKS FOR EQUILIBRIUM ITERATION     1


 AVERAGE FORCE                      0.507       TIME AVG. FORCE       0.398    
 LARGEST RESIDUAL FORCE            -3.171E-05   AT NODE        788   DOF  1
   INSTANCE: INST                                                                            
 LARGEST INCREMENT OF DISP.        -9.000E-04   AT NODE          1   DOF  2
   INSTANCE: {assembly node}                                                                 
 LARGEST CORRECTION TO DISP.        1.888E-06   AT NODE        449   DOF  2
   INSTANCE: INST                                                                            
          THE FORCE     EQUILIBRIUM EQUATIONS HAVE CONVERGED

 AVERAGE MOMENT                     8.751E-02   TIME AVG. MOMENT      6.808E-02
 LARGEST RESIDUAL MOMENT           -6.859E-07   AT NODE        788   DOF  6
   INSTANCE: INST                                                                            
 LARGEST INCREMENT OF ROTATION     -1.257E-03   AT NODE         27   DOF  6
   INSTANCE: INST                                                                            
 LARGEST CORRECTION TO ROTATION     1.292E-05   AT NODE        466   DOF  6
   INSTANCE: INST                                                                            
 ESTIMATE OF ROTATION CORRECTION    8.344E-08
 MOMENT    EQUILIB. ACCEPTED BASED ON SMALL RESIDUAL AND ESTIMATED CORRECTION

 ITERATION SUMMARY FOR THE INCREMENT:   1 TOTAL ITERATIONS, OF WHICH
   0 ARE SEVERE DISCONTINUITY ITERATIONS AND  1 ARE EQUILIBRIUM ITERATIONS.

 TIME INCREMENT COMPLETED  1.000E-02,  FRACTION OF STEP COMPLETED  0.950    
 STEP TIME COMPLETED       0.950    ,  TOTAL TIME COMPLETED        0.950    


  INCREMENT    96 STARTS. ATTEMPT NUMBER  1, TIME INCREMENT  1.000E-02

  NUMBER OF EQUATIONS =      2693     NUMBER OF RHS =    1
  NUMBER OF FLOATING PT. OPERATIONS =  1.90E+05

     CHECK POINT   START OF SOLVER    

     CHECK POINT  END OF SOLVER       

       ELAPSED USER TIME (SEC)      =   0.0000    
       ELAPSED SYSTEM TIME (SEC)    =   0.0000    
       ELAPSED TOTAL CPU TIME (SEC) =   0.0000    
       ELAPSED WALLCLOCK TIME (SEC) =          0
 

 ***WARNING: SOLVER PROBLEM. NUMERICAL SINGULARITY WHEN PROCESSING NODE INST.15 
             D.O.F. 1 RATIO = 53.3015E+12 .
 

 ***WARNING: SOLVER PROBLEM. NUMERICAL SINGULARITY WHEN PROCESSING NODE INST.15 
             D.O.F. 2 RATIO = 556.910E+12  .

               CONVERGENCE CHECKS FOR EQUILIBRIUM ITERATION     1


 AVERAGE FORCE                      0.515       TIME AVG. FORCE       0.399    
 LARGEST RESIDUAL FORCE            -1.865E-08   AT NODE        642   DOF  1
   INSTANCE: INST                                                                            
 LARGEST INCREMENT OF DISP.        -9.000E-04   AT NODE          1   DOF  2
   INSTANCE: {assembly node}                                                                 
 LARGEST CORRECTION TO DISP.       -1.625E-06   AT NODE          1   DOF  1
   INSTANCE: {assembly node}                                                                 
          THE FORCE     EQUILIBRIUM EQUATIONS HAVE CONVERGED

 AVERAGE MOMENT                     8.764E-02   TIME AVG. MOMENT      6.829E-02
 LARGEST RESIDUAL MOMENT            4.452E-08   AT NODE        774   DOF  6
   INSTANCE: INST                                                                            
 LARGEST INCREMENT OF ROTATION     -1.256E-03   AT NODE         27   DOF  6
   INSTANCE: INST                                                                            
 LARGEST CORRECTION TO ROTATION     5.395E-07   AT NODE         30   DOF  6
   INSTANCE: INST                                                                            
          THE MOMENT    EQUILIBRIUM EQUATIONS HAVE CONVERGED

 ITERATION SUMMARY FOR THE INCREMENT:   1 TOTAL ITERATIONS, OF WHICH
   0 ARE SEVERE DISCONTINUITY ITERATIONS AND  1 ARE EQUILIBRIUM ITERATIONS.

 TIME INCREMENT COMPLETED  1.000E-02,  FRACTION OF STEP COMPLETED  0.960    
 STEP TIME COMPLETED       0.960    ,  TOTAL TIME COMPLETED        0.960    


  INCREMENT    97 STARTS. ATTEMPT NUMBER  1, TIME INCREMENT  1.000E-02

  NUMBER OF EQUATIONS =      2693     NUMBER OF RHS =    1
  NUMBER OF FLOATING PT. OPERATIONS =  1.90E+05

     CHECK POINT   START OF SOLVER    

     CHECK POINT  END OF SOLVER       

       ELAPSED USER TIME (SEC)      =   0.0000    
       ELAPSED SYSTEM TIME (SEC)    =   0.0000    
       ELAPSED TOTAL CPU TIME (SEC) =   0.0000    
       ELAPSED WALLCLOCK TIME (SEC) =          0
 

 ***WARNING: SOLVER PROBLEM. NUMERICAL SINGULARITY WHEN PROCESSING NODE INST.15 
             D.O.F. 1 RATIO = 265.830E+12  .
 

 ***WARNING: SOLVER PROBLEM. NUMERICAL SINGULARITY WHEN PROCESSING NODE INST.15 
             D.O.F. 2 RATIO = 1.30008E+15.

               CONVERGENCE CHECKS FOR EQUILIBRIUM ITERATION     1


 AVERAGE FORCE                      0.508       TIME AVG. FORCE       0.400    
 LARGEST RESIDUAL FORCE             1.650E-05   AT NODE        480   DOF  1
   INSTANCE: INST                                                                            
 LARGEST INCREMENT OF DISP.        -9.000E-04   AT NODE          1   DOF  2
   INSTANCE: {assembly node}                                                                 
 LARGEST CORRECTION TO DISP.       -1.172E-05   AT NODE         26   DOF  1
   INSTANCE: INST                                                                            
 ESTIMATE OF DISP.    CORRECTION    2.444E-08
 FORCE     EQUILIB. ACCEPTED BASED ON SMALL RESIDUAL AND ESTIMATED CORRECTION

 AVERAGE MOMENT                     8.777E-02   TIME AVG. MOMENT      6.849E-02
 LARGEST RESIDUAL MOMENT           -1.786E-07   AT NODE        480   DOF  6
   INSTANCE: INST                                                                            
 LARGEST INCREMENT OF ROTATION     -1.260E-03   AT NODE         27   DOF  6
   INSTANCE: INST                                                                            
 LARGEST CORRECTION TO ROTATION     8.793E-06   AT NODE        480   DOF  6
   INSTANCE: INST                                                                            
          THE MOMENT    EQUILIBRIUM EQUATIONS HAVE CONVERGED

 ITERATION SUMMARY FOR THE INCREMENT:   1 TOTAL ITERATIONS, OF WHICH
   0 ARE SEVERE DISCONTINUITY ITERATIONS AND  1 ARE EQUILIBRIUM ITERATIONS.

 TIME INCREMENT COMPLETED  1.000E-02,  FRACTION OF STEP COMPLETED  0.970    
 STEP TIME COMPLETED       0.970    ,  TOTAL TIME COMPLETED        0.970    


  INCREMENT    98 STARTS. ATTEMPT NUMBER  1, TIME INCREMENT  1.000E-02

  NUMBER OF EQUATIONS =      2693     NUMBER OF RHS =    1
  NUMBER OF FLOATING PT. OPERATIONS =  1.90E+05

     CHECK POINT   START OF SOLVER    

     CHECK POINT  END OF SOLVER       

       ELAPSED USER TIME (SEC)      =   0.0000    
       ELAPSED SYSTEM TIME (SEC)    =   0.0000    
       ELAPSED TOTAL CPU TIME (SEC) =   0.0000    
       ELAPSED WALLCLOCK TIME (SEC) =          0
 

 ***WARNING: SOLVER PROBLEM. NUMERICAL SINGULARITY WHEN PROCESSING NODE INST.15 
             D.O.F. 1 RATIO = 62.9619E+12 .
 

 ***WARNING: SOLVER PROBLEM. NUMERICAL SINGULARITY WHEN PROCESSING NODE INST.15 
             D.O.F. 2 RATIO = 1.76843E+15.

               CONVERGENCE CHECKS FOR EQUILIBRIUM ITERATION     1


 AVERAGE FORCE                      0.509       TIME AVG. FORCE       0.401    
 LARGEST RESIDUAL FORCE             1.057E-05   AT NODE        172   DOF  1
   INSTANCE: INST                                                                            
 LARGEST INCREMENT OF DISP.        -9.000E-04   AT NODE          1   DOF  2
   INSTANCE: {assembly node}                                                                 
 LARGEST CORRECTION TO DISP.        2.231E-06   AT NODE        338   DOF  2
   INSTANCE: INST                                                                            
          THE FORCE     EQUILIBRIUM EQUATIONS HAVE CONVERGED

 AVERAGE MOMENT                     8.790E-02   TIME AVG. MOMENT      6.868E-02
 LARGEST RESIDUAL MOMENT            1.130E-07   AT NODE        608   DOF  6
   INSTANCE: INST                                                                            
 LARGEST INCREMENT OF ROTATION      1.261E-03   AT NODE         26   DOF  6
   INSTANCE: INST                                                                            
 LARGEST CORRECTION TO ROTATION    -5.263E-06   AT NODE        608   DOF  6
   INSTANCE: INST                                                                            
          THE MOMENT    EQUILIBRIUM EQUATIONS HAVE CONVERGED

 ITERATION SUMMARY FOR THE INCREMENT:   1 TOTAL ITERATIONS, OF WHICH
   0 ARE SEVERE DISCONTINUITY ITERATIONS AND  1 ARE EQUILIBRIUM ITERATIONS.

 TIME INCREMENT COMPLETED  1.000E-02,  FRACTION OF STEP COMPLETED  0.980    
 STEP TIME COMPLETED       0.980    ,  TOTAL TIME COMPLETED        0.980    


  INCREMENT    99 STARTS. ATTEMPT NUMBER  1, TIME INCREMENT  1.000E-02

  NUMBER OF EQUATIONS =      2693     NUMBER OF RHS =    1
  NUMBER OF FLOATING PT. OPERATIONS =  1.90E+05

     CHECK POINT   START OF SOLVER    

     CHECK POINT  END OF SOLVER       

       ELAPSED USER TIME (SEC)      =   0.0000    
       ELAPSED SYSTEM TIME (SEC)    =   0.0000    
       ELAPSED TOTAL CPU TIME (SEC) =   0.0000    
       ELAPSED WALLCLOCK TIME (SEC) =          0
 

 ***WARNING: SOLVER PROBLEM. NUMERICAL SINGULARITY WHEN PROCESSING NODE INST.15 
             D.O.F. 1 RATIO = 142.258E+12  .
 

 ***WARNING: SOLVER PROBLEM. NUMERICAL SINGULARITY WHEN PROCESSING NODE INST.15 
             D.O.F. 2 RATIO = 176.708E+12  .

               CONVERGENCE CHECKS FOR EQUILIBRIUM ITERATION     1


 AVERAGE FORCE                      0.516       TIME AVG. FORCE       0.402    
 LARGEST RESIDUAL FORCE             2.271E-06   AT NODE        823   DOF  1
   INSTANCE: INST                                                                            
 LARGEST INCREMENT OF DISP.        -9.000E-04   AT NODE          1   DOF  2
   INSTANCE: {assembly node}                                                                 
 LARGEST CORRECTION TO DISP.       -1.632E-06   AT NODE          1   DOF  1
   INSTANCE: {assembly node}                                                                 
          THE FORCE     EQUILIBRIUM EQUATIONS HAVE CONVERGED

 AVERAGE MOMENT                     8.803E-02   TIME AVG. MOMENT      6.888E-02
 LARGEST RESIDUAL MOMENT           -2.139E-08   AT NODE        822   DOF  6
   INSTANCE: INST                                                                            
 LARGEST INCREMENT OF ROTATION     -1.261E-03   AT NODE         27   DOF  6
   INSTANCE: INST                                                                            
 LARGEST CORRECTION TO ROTATION    -5.956E-07   AT NODE         26   DOF  6
   INSTANCE: INST                                                                            
          THE MOMENT    EQUILIBRIUM EQUATIONS HAVE CONVERGED

 ITERATION SUMMARY FOR THE INCREMENT:   1 TOTAL ITERATIONS, OF WHICH
   0 ARE SEVERE DISCONTINUITY ITERATIONS AND  1 ARE EQUILIBRIUM ITERATIONS.

 TIME INCREMENT COMPLETED  1.000E-02,  FRACTION OF STEP COMPLETED  0.990    
 STEP TIME COMPLETED       0.990    ,  TOTAL TIME COMPLETED        0.990    


  INCREMENT   100 STARTS. ATTEMPT NUMBER  1, TIME INCREMENT  1.000E-02

  NUMBER OF EQUATIONS =      2693     NUMBER OF RHS =    1
  NUMBER OF FLOATING PT. OPERATIONS =  1.90E+05

     CHECK POINT   START OF SOLVER    

     CHECK POINT  END OF SOLVER       

       ELAPSED USER TIME (SEC)      =   0.0000    
       ELAPSED SYSTEM TIME (SEC)    =   0.0000    
       ELAPSED TOTAL CPU TIME (SEC) =   0.0000    
       ELAPSED WALLCLOCK TIME (SEC) =          1
 

 ***WARNING: SOLVER PROBLEM. NUMERICAL SINGULARITY WHEN PROCESSING NODE INST.15 
             D.O.F. 1 RATIO = 87.8685E+12 .
 

 ***WARNING: SOLVER PROBLEM. NUMERICAL SINGULARITY WHEN PROCESSING NODE INST.15 
             D.O.F. 2 RATIO = 307.664E+12  .

               CONVERGENCE CHECKS FOR EQUILIBRIUM ITERATION     1


 AVERAGE FORCE                      0.517       TIME AVG. FORCE       0.404    
 LARGEST RESIDUAL FORCE             2.294E-06   AT NODE        607   DOF  1
   INSTANCE: INST                                                                            
 LARGEST INCREMENT OF DISP.        -9.000E-04   AT NODE          1   DOF  2
   INSTANCE: {assembly node}                                                                 
 LARGEST CORRECTION TO DISP.       -1.632E-06   AT NODE          1   DOF  1
   INSTANCE: {assembly node}                                                                 
          THE FORCE     EQUILIBRIUM EQUATIONS HAVE CONVERGED

 AVERAGE MOMENT                     8.816E-02   TIME AVG. MOMENT      6.907E-02
 LARGEST RESIDUAL MOMENT            2.153E-08   AT NODE        774   DOF  6
   INSTANCE: INST                                                                            
 LARGEST INCREMENT OF ROTATION      1.260E-03   AT NODE         26   DOF  6
   INSTANCE: INST                                                                            
 LARGEST CORRECTION TO ROTATION     6.774E-07   AT NODE        352   DOF  6
   INSTANCE: INST                                                                            
          THE MOMENT    EQUILIBRIUM EQUATIONS HAVE CONVERGED

 ITERATION SUMMARY FOR THE INCREMENT:   1 TOTAL ITERATIONS, OF WHICH
   0 ARE SEVERE DISCONTINUITY ITERATIONS AND  1 ARE EQUILIBRIUM ITERATIONS.

 TIME INCREMENT COMPLETED  1.000E-02,  FRACTION OF STEP COMPLETED   1.00    
 STEP TIME COMPLETED        1.00    ,  TOTAL TIME COMPLETED         1.00    


          THE ANALYSIS HAS BEEN COMPLETED



     ANALYSIS SUMMARY:
     TOTAL OF        100  INCREMENTS
                       0  CUTBACKS IN AUTOMATIC INCREMENTATION
                     102  ITERATIONS INCLUDING CONTACT ITERATIONS IF PRESENT
                     102  PASSES THROUGH THE EQUATION SOLVER OF WHICH 
                     102  INVOLVE MATRIX DECOMPOSITION, INCLUDING
                       0  DECOMPOSITION(S) OF THE MASS MATRIX
                       1  REORDERING OF EQUATIONS TO MINIMIZE WAVEFRONT
                       0  ADDITIONAL RESIDUAL EVALUATIONS FOR LINE SEARCHES
                       0  ADDITIONAL OPERATOR EVALUATIONS FOR LINE SEARCHES
                       1  WARNING MESSAGES DURING USER INPUT PROCESSING
                     204  WARNING MESSAGES DURING ANALYSIS
                     204  ANALYSIS WARNINGS ARE NUMERICAL PROBLEM MESSAGES
                       0  ANALYSIS WARNINGS ARE NEGATIVE EIGENVALUE MESSAGES
                       0  ERROR MESSAGES



     JOB TIME SUMMARY
       USER TIME (SEC)      =   5.9000    
       SYSTEM TIME (SEC)    =  0.90000    
       TOTAL CPU TIME (SEC) =   6.8000    
       WALLCLOCK TIME (SEC) =         12
