*Heading
** Job name: Job-BU005 Model name: Model-1
** Generated by: Abaqus/CAE 2018
*Preprint, echo=NO, model=NO, history=NO, contact=NO
**
** PARTS
**
*Part, name=part2
*Node
      1,   4.32746267,        3.125
      2,   4.32746267,        2.875
      3,   4.31946898,        2.875
      4,   4.31946898,   2.50615382
      5,   4.00003862,   2.32173085
      6,   4.00403595,   2.31480765
      7,   3.89578247,   2.25230765
      8,   3.89844728,   2.24769235
      9,   4.00670052,   2.31019235
     10,   4.01069736,   2.30326915
     11,   4.33012772,   2.48769236
     12,   4.64955759,   2.30326915
     13,   4.65355492,   2.31019235
     14,   4.87006092,   2.18519235
     15,   4.86606407,   2.17826915
     16,   5.18549442,   1.99384618
     17,   5.18549442,        1.625
     18,   5.19348812,        1.625
     19,   5.19348812,          1.5
     20,   5.19881773,          1.5
** ... 13681 like lines cut
*Element, type=CPS3
 1, 10246,  9852, 10245
 2, 10222, 10048, 10244
 3, 10212,  9783,  9807
 4,  9808,  1311,  1312
 5, 10209,  1599,  1600
 6, 10234, 10150, 10233
 7,  9805,   639,   640
 8,  9810,    42,    62
 9,  9806,    13,    33
10,  9812,     1,    38
11, 10193,  9824,  9779
12, 10163,   831,   832
13, 10161,    61,    43
14, 10162,    32,    14
15, 10225, 10156,    23
16, 10215, 10022, 10164
17,  9835,  9775, 10172
18, 10228,  9786, 10157
1107, 10735, 10340, 10734
1108, 10706, 10483, 10655
** ... 132 like lines cut
*Element, type=CPS4R
  19, 10216, 10175,   570,  9968
  20,  1118,  9968,  9816,  1117
  21,  9968,  1118,  1119, 10216
  22,  9825,   573,   574, 10202
  23,  9833,   575,   576,  9763
  24,  1112,  9763,  9969,  1111
  25,  9833,  1113,  1114, 10202
  26,  1114,  1115,  9825, 10202
  27,  9825,  1115,  1116, 10194
  28,  1116,  1117,  9816, 10194
  29,  9811,     2,     3,   569
  30, 10175, 10216, 10213,  9811
  31,   567,   568,  1121,  1122
  32,    37,  1121,   568,     2
  33,  1125,   564,   565,  1124
  34,   565,   566,  1123,  1124
  35,   562,   563,  1126,  1127
  36,  1125,  1126,   563,   564
  37,  1130,   559,   560,  1129
  38,  1128,  1129,   560,   561
** ... 8733 like lines cut
*Nset, nset=Set-1, generate
     1,  13701,      1
*Elset, elset=Set-1, generate
    1,  8905,     1
** Section: Section-1
*Solid Section, elset=Set-1, material=Material-1
1.,
*End Part
**  
**
** ASSEMBLY
**
*Assembly, name=Assembly
**  
*Instance, name=part2-1, part=part2
*End Instance
**  
*Node
      1,           7.,           7.,           0.
*Node
      2, -1.73472348e-18,          4.5,           0.
*Node
      3,   1.73205101,          4.5,           0.
*Node
      4,   3.46410203,          4.5,           0.
*Node
      5,   5.19615316,          4.5,           0.
*Node
      6,   5.62916565,         3.75,           0.
*Node
      7,   5.62916565,         2.25,           0.
*Node
      8,   5.62916565,         0.75,           0.
*Node
      9,   5.62916565,        -0.75,           0.
*Node
     10,   5.19615316,         -1.5,           0.
*Node
     11,   3.46410203,         -1.5,           0.
*Node
     12,   1.73205101,         -1.5,           0.
*Node
     13, -1.51788304e-18,         -1.5,           0.
*Node
     14,  -1.29903805,        -0.75,           0.
*Node
     15,  -1.29903805,         0.75,           0.
*Node
     16,  -1.29903805,         2.25,           0.
*Node
     17,  -1.29903805,         3.75,           0.
*Nset, nset=Set-8
 1,
*Nset, nset=n1a
 2,
*Nset, nset=n1b
 3,
*Nset, nset=n1c
 4,
*Nset, nset=n1d
 5,
*Nset, nset=n2a
 6,
*Nset, nset=n2b
 7,
*Nset, nset=n2c
 8,
*Nset, nset=n2d
 9,
*Nset, nset=n3a
 13,
*Nset, nset=n3b
 12,
*Nset, nset=n3c
 11,
*Nset, nset=n3d
 10,
*Nset, nset=n4a
 17,
*Nset, nset=n4b
 16,
*Nset, nset=n4c
 15,
*Nset, nset=n4d
 14,
*Nset, nset=ref
 1,
*Elset, elset=_s_Surf-1_S4, internal, instance=part2-1
 6101,
*Surface, type=ELEMENT, name=s_Surf-1
_s_Surf-1_S4, S4
*Elset, elset=_s_Surf-2_S4, internal, instance=part2-1
 4994,
*Surface, type=ELEMENT, name=s_Surf-2
_s_Surf-2_S4, S4
*Elset, elset=_s_Surf-3_S3, internal, instance=part2-1
 2764,
*Surface, type=ELEMENT, name=s_Surf-3
_s_Surf-3_S3, S3
*Elset, elset=_s_Surf-4_S4, internal, instance=part2-1
 539,
*Surface, type=ELEMENT, name=s_Surf-4
_s_Surf-4_S4, S4
*Elset, elset=_s_Surf-5_S4, internal, instance=part2-1
 486,
*Surface, type=ELEMENT, name=s_Surf-5
_s_Surf-5_S4, S4
*Elset, elset=_s_Surf-6_S4, internal, instance=part2-1
 295,
*Surface, type=ELEMENT, name=s_Surf-6
_s_Surf-6_S4, S4
*Elset, elset=_s_Surf-7_S4, internal, instance=part2-1
 1597,
*Surface, type=ELEMENT, name=s_Surf-7
_s_Surf-7_S4, S4
*Elset, elset=_s_Surf-8_S3, internal, instance=part2-1
 1401,
*Surface, type=ELEMENT, name=s_Surf-8
_s_Surf-8_S3, S3
*Elset, elset=_s_Surf-9_S4, internal, instance=part2-1
 6165,
*Surface, type=ELEMENT, name=s_Surf-9
_s_Surf-9_S4, S4
*Elset, elset=_s_Surf-10_S4, internal, instance=part2-1
 5686,
*Surface, type=ELEMENT, name=s_Surf-10
_s_Surf-10_S4, S4
*Elset, elset=_s_Surf-11_S4, internal, instance=part2-1
 8386,
*Surface, type=ELEMENT, name=s_Surf-11
_s_Surf-11_S4, S4
*Elset, elset=_s_Surf-12_S3, internal, instance=part2-1
 7915,
*Surface, type=ELEMENT, name=s_Surf-12
_s_Surf-12_S3, S3
*Elset, elset=_s_Surf-13_S4, internal, instance=part2-1
 8025,
*Surface, type=ELEMENT, name=s_Surf-13
_s_Surf-13_S4, S4
*Elset, elset=_s_Surf-14_S3, internal, instance=part2-1
 6908,
*Surface, type=ELEMENT, name=s_Surf-14
_s_Surf-14_S3, S3
*Elset, elset=_s_Surf-15_S4, internal, instance=part2-1
 3580,
*Surface, type=ELEMENT, name=s_Surf-15
_s_Surf-15_S4, S4
*Elset, elset=_s_Surf-16_S4, internal, instance=part2-1
 1345,
*Surface, type=ELEMENT, name=s_Surf-16
_s_Surf-16_S4, S4
** Constraint: Constraint-1
*Coupling, constraint name=Constraint-1, ref node=n1a, surface=s_Surf-1
*Kinematic
** Constraint: Constraint-2
*Coupling, constraint name=Constraint-2, ref node=n1b, surface=s_Surf-2
*Kinematic
** Constraint: Constraint-3
*Coupling, constraint name=Constraint-3, ref node=n1c, surface=s_Surf-3
*Kinematic
** Constraint: Constraint-4
*Coupling, constraint name=Constraint-4, ref node=n1d, surface=s_Surf-4
*Kinematic
** Constraint: Constraint-5
*Coupling, constraint name=Constraint-5, ref node=n2a, surface=s_Surf-5
*Kinematic
** Constraint: Constraint-6
*Coupling, constraint name=Constraint-6, ref node=n2b, surface=s_Surf-6
*Kinematic
** Constraint: Constraint-7
*Coupling, constraint name=Constraint-7, ref node=n2c, surface=s_Surf-7
*Kinematic
** Constraint: Constraint-8
*Coupling, constraint name=Constraint-8, ref node=n2d, surface=s_Surf-8
*Kinematic
** Constraint: Constraint-9
*Coupling, constraint name=Constraint-9, ref node=n4a, surface=s_Surf-9
*Kinematic
** Constraint: Constraint-10
*Coupling, constraint name=Constraint-10, ref node=n4b, surface=s_Surf-10
*Kinematic
** Constraint: Constraint-11
*Coupling, constraint name=Constraint-11, ref node=n4c, surface=s_Surf-11
*Kinematic
** Constraint: Constraint-12
*Coupling, constraint name=Constraint-12, ref node=n4d, surface=s_Surf-12
*Kinematic
** Constraint: Constraint-13
*Coupling, constraint name=Constraint-13, ref node=n3a, surface=s_Surf-13
*Kinematic
** Constraint: Constraint-14
*Coupling, constraint name=Constraint-14, ref node=n3b, surface=s_Surf-14
*Kinematic
** Constraint: Constraint-15
*Coupling, constraint name=Constraint-15, ref node=n3c, surface=s_Surf-15
*Kinematic
** Constraint: Constraint-16
*Coupling, constraint name=Constraint-16, ref node=n3d, surface=s_Surf-16
*Kinematic
** Constraint: Constraint-17
*Equation
2
n3a, 1, 1.
n1a, 1, -1.
** Constraint: Constraint-18
*Equation
2
n3b, 1, 1.
n1b, 1, -1.
** Constraint: Constraint-19
*Equation
2
n3c, 1, 1.
n1c, 1, -1.
** Constraint: Constraint-20
*Equation
2
n3d, 1, 1.
n1d, 1, -1.
** Constraint: Constraint-21
*Equation
3
n3a, 2, 1.
n1a, 2, -1.
ref, 2, 1.
** Constraint: Constraint-22
*Equation
3
n3b, 2, 1.
n1b, 2, -1.
ref, 2, 1.
** Constraint: Constraint-23
*Equation
3
n3c, 2, 1.
n1c, 2, -1.
ref, 2, 1.
** Constraint: Constraint-24
*Equation
3
n3d, 2, 1.
n1d, 2, -1.
ref, 2, 1.
** Constraint: Constraint-25
*Equation
3
n4a, 1, 1.
n2a, 1, -1.
ref, 1, 1.
** Constraint: Constraint-26
*Equation
3
n4b, 1, 1.
n2b, 1, -1.
ref, 1, 1.
** Constraint: Constraint-27
*Equation
3
n4c, 1, 1.
n2c, 1, -1.
ref, 1, 1.
** Constraint: Constraint-28
*Equation
3
n4d, 1, 1.
n2d, 1, -1.
ref, 1, 1.
** Constraint: Constraint-29
*Equation
2
n4a, 2, 1.
n2a, 2, -1.
** Constraint: Constraint-30
*Equation
2
n4b, 2, 1.
n2b, 2, -1.
** Constraint: Constraint-31
*Equation
2
n4c, 2, 1.
n2c, 2, -1.
** Constraint: Constraint-32
*Equation
2
n4d, 2, 1.
n2d, 2, -1.
** Constraint: Constraint-33
*Equation
2
n4a, 6, 1.
n2a, 6, -1.
** Constraint: Constraint-34
*Equation
2
n4b, 6, 1.
n2b, 6, -1.
** Constraint: Constraint-35
*Equation
2
n4c, 6, 1.
n2c, 6, -1.
** Constraint: Constraint-36
*Equation
2
n4d, 6, 1.
n2d, 6, -1.
** Constraint: Constraint-37
*Equation
2
n3a, 6, 1.
n1a, 6, -1.
** Constraint: Constraint-38
*Equation
2
n3b, 6, 1.
n1b, 6, -1.
** Constraint: Constraint-39
*Equation
2
n3c, 6, 1.
n1c, 6, -1.
** Constraint: Constraint-40
*Equation
2
n3d, 6, 1.
n1d, 6, -1.
*End Assembly
** 
** MATERIALS
** 
*Material, name=Material-1
*Elastic
1440., 0.3
** ----------------------------------------------------------------
** 
** STEP: Step-1
** 
*Step, name=Step-1, nlgeom=NO, perturbation
*Buckle
5, , 10, 30
** 
** LOADS
** 
** Name: Load-1   Type: Concentrated force
*Cload
Set-8, 2, -1.
** 
** OUTPUT REQUESTS
** 
*Restart, write, frequency=0
** 
** FIELD OUTPUT: F-Output-1
** 
*Output, field, variable=PRESELECT
*End Step
