1

   Abaqus 3DEXPERIENCE R2018x                                  Date 12-Mar-2022   Time 16:24:47
   For use by UNIVERSITY COLLEGE LONDON under license from Dassault Systemes or its subsidiary.

                                                                                 
                                                                                 
 STEP    1     INCREMENT     1     STEP TIME    0.00    


                        S T E P       1     C A L C U L A T I O N   O F   E I G E N V A L U E S

                                            F O R   B U C K L I N G   P R E D I C T I O N



                                                                                          

     THE SUBSPACE ITERATION METHOD IS USED FOR THIS ANALYSIS
     NUMBER OF EIGENVALUES                      5
     MAXIMUM NUMBER OF ITERATIONS                     30
     NUMBER OF VECTORS IN ITERATION                   10
                              ONLY INITIAL STRESS EFFECTS ARE INCLUDED IN THE
                              STIFFNESS MATRIX

     THIS IS A LINEAR PERTURBATION STEP.
     ALL LOADS ARE DEFINED AS CHANGE IN LOAD TO THE REFERENCE STATE

     EXTRAPOLATION WILL NOT BE USED

     CHARACTERISTIC ELEMENT LENGTH     9.738E-03

     DETAILS REGARDING ACTUAL SOLUTION WAVEFRONT REQUESTED

     DETAILED OUTPUT OF DIAGNOSTICS TO DATABASE REQUESTED

     PRINT OF INCREMENT NUMBER, TIME, ETC., TO THE MESSAGE FILE EVERY     1  INCREMENTS

  NUMBER OF EQUATIONS =     27364     NUMBER OF RHS =    1
  NUMBER OF FLOATING PT. OPERATIONS =  5.98E+06

     CHECK POINT   START OF SOLVER    

     CHECK POINT  END OF SOLVER       

       ELAPSED USER TIME (SEC)      =  0.10000    
       ELAPSED SYSTEM TIME (SEC)    =   0.0000    
       ELAPSED TOTAL CPU TIME (SEC) =  0.10000    
       ELAPSED WALLCLOCK TIME (SEC) =          0
 

 ***WARNING: SOLVER PROBLEM. NUMERICAL SINGULARITY WHEN PROCESSING NODE 
             PART2-1.14 D.O.F. 1 RATIO = 101.039E+12  .
 

 ***WARNING: SOLVER PROBLEM. NUMERICAL SINGULARITY WHEN PROCESSING NODE 
             PART2-1.14 D.O.F. 2 RATIO = 59.0056E+12 .
 
     ITERATION 1
      1       1.201191e-05     
      2       1.483452e-05     
      3       1.653047e-05     
      4       2.080863e-05     
      5       3.007886e-05     
      6       3.655690e-05     
      7       2.156285e-04     
      8       2.631731e-04     
      9       2.934621e-04     
      10      4.284283e-04     
 
     NUMBER OF EIGENVALUES CONVERGED UPTO THIS ITERATION = 0
 
     ITERATION 2
      1       1.014597e-05     
      2       1.124118e-05     
      3       1.155010e-05     
      4       1.351603e-05     
      5       1.360585e-05     
      6       1.776426e-05     
      7       8.573897e-05     
      8       8.687308e-05     
      9       9.651094e-05     
      10      1.370000e-04     
 
     NUMBER OF EIGENVALUES CONVERGED UPTO THIS ITERATION = 0
 
     ITERATION 3
      1       1.013568e-05     
      2       1.118560e-05     
      3       1.152927e-05     
      4       1.343113e-05     
      5       1.356983e-05     
      6       1.759971e-05     
      7       7.232077e-05     
      8       7.631063e-05     
      9       8.400944e-05     
      10      9.089500e-05     
 
     NUMBER OF EIGENVALUES CONVERGED UPTO THIS ITERATION = 0
 
     ITERATION 4
      1       1.013556e-05     
      2       1.118451e-05     
      3       1.152889e-05     
      4       1.342924e-05     
      5       1.356905e-05     
      6       1.759242e-05     
      7       6.903854e-05     
      8       7.226226e-05     
      9       7.977712e-05     
      10      8.206199e-05     
 
     NUMBER OF EIGENVALUES CONVERGED UPTO THIS ITERATION = 0
 
     ITERATION 5
      1       1.013555e-05     
      2       1.118449e-05     
      3       1.152888e-05     
      4       1.342919e-05     
      5       1.356903e-05     
      6       1.759203e-05     
      7       6.757203e-05     
      8       7.030290e-05     
      9       7.671689e-05     
      10      8.117065e-05     
 
     NUMBER OF EIGENVALUES CONVERGED UPTO THIS ITERATION = 2
 
     ITERATION 6
      1       1.013555e-05     
      2       1.118449e-05     
      3       1.152888e-05     
      4       1.342919e-05     
      5       1.356903e-05     
      6       1.759201e-05     
      7       6.678478e-05     
      8       6.908335e-05     
      9       7.482312e-05     
      10      8.032240e-05     
 
     NUMBER OF EIGENVALUES CONVERGED UPTO THIS ITERATION = 5


          THE ANALYSIS HAS BEEN COMPLETED



     ANALYSIS SUMMARY:
     TOTAL OF          1  INCREMENTS
                       0  CUTBACKS IN AUTOMATIC INCREMENTATION
                       1  ITERATIONS INCLUDING CONTACT ITERATIONS IF PRESENT
                       1  PASSES THROUGH THE EQUATION SOLVER OF WHICH 
                       1  INVOLVE MATRIX DECOMPOSITION, INCLUDING
                       0  DECOMPOSITION(S) OF THE MASS MATRIX
                       1  REORDERING OF EQUATIONS TO MINIMIZE WAVEFRONT
                       0  ADDITIONAL RESIDUAL EVALUATIONS FOR LINE SEARCHES
                       0  ADDITIONAL OPERATOR EVALUATIONS FOR LINE SEARCHES
                       2  WARNING MESSAGES DURING USER INPUT PROCESSING
                       2  WARNING MESSAGES DURING ANALYSIS
                       2  ANALYSIS WARNINGS ARE NUMERICAL PROBLEM MESSAGES
                       0  ANALYSIS WARNINGS ARE NEGATIVE EIGENVALUE MESSAGES
                       0  ERROR MESSAGES



     JOB TIME SUMMARY
       USER TIME (SEC)      =   3.0000    
       SYSTEM TIME (SEC)    =  0.30000    
       TOTAL CPU TIME (SEC) =   3.3000    
       WALLCLOCK TIME (SEC) =          4
